/*--------------------------------*- C++ -*----------------------------------*\
| =========                 |                                                 |
| \\      /  F ield         | OpenFOAM: The Open Source CFD Toolbox           |
|  \\    /   O peration     | Version:  2312                                  |
|   \\  /    A nd           | Website:  www.openfoam.com                      |
|    \\/     M anipulation  |                                                 |
\*---------------------------------------------------------------------------*/
FoamFile
{
    version     2.0;
    format      ascii;
    arch        "LSB;label=64;scalar=64";
    class       extendedFeatureEdgeMesh;
    location    "constant/extendedFeatureEdgeMesh";
    object      in.extendedFeatureEdgeMesh;
}
// * * * * * * * * * * * * * * * * * * * * * * * * * * * * * * * * * * * * * //

// points

132
(
(-0.421964 0.398797 0.00817851)
(-0.41913 0.401689 0.00981033)
(-0.418171 0.4026 0.010556)
(-0.422588 0.398237 0.00792742)
(-0.417774 0.40308 0.0110334)
(-0.417213 0.403656 0.0116191)
(-0.416351 0.40454 0.012419)
(-0.4153 0.405521 0.013316)
(-0.41445 0.406485 0.0138962)
(-0.414283 0.40656 0.0138928)
(-0.414178 0.406763 0.014042)
(-0.413539 0.407423 0.0149638)
(-0.412788 0.408169 0.0158089)
(-0.454896 0.365581 0.0135219)
(-0.453234 0.367235 0.0118313)
(-0.423168 0.397654 0.0076493)
(-0.424036 0.396688 0.00725991)
(-0.451929 0.368537 0.0107056)
(-0.450473 0.3699 0.00948311)
(-0.448846 0.371616 0.00822773)
(-0.425304 0.395402 0.00700469)
(-0.447587 0.372875 0.00733911)
(-0.446162 0.374304 0.00662678)
(-0.445497 0.374845 0.00635447)
(-0.427596 0.392992 0.00657314)
(-0.428108 0.392558 0.00649782)
(-0.444617 0.375857 0.00602865)
(-0.443567 0.37686 0.00577789)
(-0.442767 0.377724 0.00578206)
(-0.428188 0.392477 0.00647853)
(-0.429655 0.390989 0.00620881)
(-0.430759 0.389877 0.00644685)
(-0.434829 0.385753 0.00592956)
(-0.433806 0.386911 0.00594766)
(-0.433251 0.387352 0.00612701)
(-0.421754 0.399012 0.00823953)
(-0.421536 0.399233 0.00836689)
(-0.421405 0.399366 0.00842284)
(-0.421108 0.39967 0.00861421)
(-0.420617 0.400172 0.00890741)
(-0.420187 0.40061 0.00916578)
(-0.419377 0.401436 0.00964049)
(-0.41894 0.401883 0.00992245)
(-0.418884 0.40194 0.00992829)
(-0.418575 0.402255 0.0101307)
(-0.418424 0.4024 0.0102723)
(-0.4175 0.40336 0.0112844)
(-0.416961 0.403915 0.0118493)
(-0.414709 0.40622 0.0136723)
(-0.414036 0.40691 0.014276)
(-0.413857 0.407094 0.0144948)
(-0.41136 0.409662 0.0171539)
(-0.411079 0.409949 0.0173797)
(-0.458569 0.361921 0.0169287)
(-0.458113 0.362376 0.0165919)
(-0.457915 0.362574 0.016453)
(-0.457378 0.363109 0.0158883)
(-0.456867 0.363616 0.0152997)
(-0.455921 0.364559 0.014421)
(-0.455797 0.364683 0.0143133)
(-0.455769 0.364711 0.0142896)
(-0.455633 0.364846 0.0141614)
(-0.453908 0.366647 0.0123828)
(-0.452202 0.368265 0.0109546)
(-0.452022 0.368445 0.0107959)
(-0.423653 0.397077 0.00736503)
(-0.424651 0.396064 0.00709168)
(-0.424531 0.396186 0.00711622)
(-0.425087 0.395622 0.00704513)
(-0.425151 0.395558 0.00703382)
(-0.451579 0.368885 0.0103273)
(-0.451369 0.369094 0.0101207)
(-0.451255 0.369208 0.0100082)
(-0.449885 0.370575 0.00890675)
(-0.44954 0.370921 0.00867725)
(-0.448578 0.371883 0.00799238)
(-0.448227 0.372234 0.00771618)
(-0.425968 0.394727 0.00681374)
(-0.425828 0.394869 0.00682338)
(-0.448044 0.372417 0.0076028)
(-0.447718 0.372743 0.00741097)
(-0.447436 0.373026 0.00722868)
(-0.446817 0.373646 0.00692907)
(-0.44591 0.374557 0.00647946)
(-0.445093 0.375377 0.00614039)
(-0.444708 0.375765 0.006046)
(-0.444155 0.376258 0.00583625)
(-0.442991 0.377498 0.00578056)
(-0.442312 0.378183 0.00572037)
(-0.442017 0.378481 0.00567411)
(-0.441906 0.378593 0.00565829)
(-0.441858 0.378642 0.00566548)
(-0.428747 0.391771 0.00624252)
(-0.430078 0.390563 0.00628208)
(-0.429838 0.390804 0.00621235)
(-0.441505 0.378998 0.00566555)
(-0.441076 0.379433 0.00569849)
(-0.440709 0.379804 0.00570005)
(-0.440594 0.37992 0.00566263)
(-0.440349 0.380167 0.00567115)
(-0.44016 0.380358 0.0056335)
(-0.440005 0.380514 0.00557912)
(-0.439902 0.380618 0.00554425)
(-0.431055 0.389578 0.006416)
(-0.439739 0.380781 0.0054367)
(-0.439429 0.381091 0.00524541)
(-0.431118 0.389514 0.00639791)
(-0.439255 0.381266 0.00517461)
(-0.438995 0.381527 0.00504062)
(-0.438823 0.381699 0.00490408)
(-0.438522 0.382002 0.00482858)
(-0.431199 0.389431 0.00636824)
(-0.431494 0.389131 0.00628491)
(-0.431288 0.38934 0.00629898)
(-0.431675 0.388948 0.00628316)
(-0.438386 0.382138 0.00476154)
(-0.438269 0.382257 0.00477859)
(-0.437935 0.382595 0.00484682)
(-0.437764 0.382771 0.0050034)
(-0.437063 0.383494 0.00529319)
(-0.436368 0.384206 0.00560909)
(-0.435706 0.384865 0.00583825)
(-0.435336 0.38524 0.00587104)
(-0.434987 0.385594 0.00593238)
(-0.43461 0.385974 0.00588398)
(-0.432009 0.388608 0.00612222)
(-0.431909 0.38871 0.00617607)
(-0.431792 0.388829 0.0062489)
(-0.432184 0.388432 0.00612812)
(-0.432641 0.387968 0.0061203)
(-0.43244 0.388172 0.0060835)
(-0.432962 0.387644 0.00614553)
)

// edges

161
(
(2 1)
(1 0)
(11 7)
(12 1)
(14 13)
(1 16)
(19 18)
(18 17)
(20 24)
(23 21)
(27 23)
(28 27)
(23 29)
(34 32)
(1 3)
(4 1)
(10 8)
(11 6)
(5 1)
(1 15)
(15 16)
(19 17)
(22 21)
(20 25)
(27 26)
(29 30)
(29 31)
(23 31)
(33 32)
(0 35)
(35 36)
(36 37)
(37 38)
(38 39)
(39 40)
(40 41)
(41 1)
(42 43)
(43 44)
(44 45)
(1 42)
(45 2)
(3 0)
(2 4)
(4 46)
(46 5)
(5 47)
(47 6)
(7 48)
(48 8)
(8 9)
(9 10)
(49 50)
(50 11)
(10 49)
(6 7)
(11 12)
(51 52)
(52 53)
(12 51)
(53 54)
(54 55)
(56 57)
(57 58)
(55 56)
(58 59)
(59 60)
(60 61)
(61 13)
(13 62)
(62 14)
(14 63)
(63 64)
(15 3)
(16 65)
(65 15)
(66 67)
(67 16)
(68 66)
(69 68)
(64 17)
(17 70)
(70 71)
(71 72)
(72 18)
(18 73)
(73 74)
(19 75)
(75 76)
(74 19)
(77 78)
(78 20)
(20 69)
(76 79)
(79 80)
(80 21)
(21 81)
(81 82)
(22 83)
(83 23)
(82 22)
(24 77)
(25 24)
(23 84)
(84 85)
(26 86)
(86 27)
(85 26)
(27 87)
(87 28)
(88 89)
(89 90)
(90 91)
(28 88)
(29 25)
(30 92)
(92 29)
(93 94)
(94 30)
(31 93)
(91 95)
(95 96)
(97 98)
(98 99)
(96 97)
(100 101)
(101 102)
(99 100)
(103 31)
(102 104)
(104 105)
(106 103)
(105 107)
(108 109)
(109 110)
(107 108)
(111 106)
(112 113)
(113 111)
(114 112)
(110 115)
(115 116)
(116 117)
(117 118)
(118 119)
(119 120)
(121 122)
(122 123)
(32 124)
(124 33)
(33 34)
(123 32)
(125 126)
(126 127)
(128 125)
(129 130)
(130 128)
(131 129)
(34 131)
(120 121)
(127 114)
)

// concaveStart mixedStart nonFeatureStart
0 0 35
// internalStart flatStart openStart multipleStart
14 29 29 161
// normals

105
(
(0.710946 -0.703157 0.0112198)
(0.711064 -0.703044 0.0108477)
(0.71325 -0.700902 0.00339078)
(0.710012 -0.704045 0.0142689)
(0.711023 -0.703091 0.0104546)
(0.74119 -0.660889 -0.117738)
(0.747923 -0.647058 -0.148076)
(0.764998 -0.58471 -0.269986)
(0.450318 -0.730817 0.512952)
(0.375169 -0.791014 0.483266)
(0.710562 -0.703534 0.0118861)
(0.707525 -0.706449 0.0183984)
(0.797915 -0.516588 -0.310593)
(0.307048 -0.661245 0.684454)
(0.71118 -0.702926 0.0108789)
(0.711158 -0.702955 0.0104179)
(-0.279307 -0.467783 0.83855)
(0.7548 -0.648386 -0.0993627)
(0.710987 -0.703117 0.0110958)
(0.710763 -0.702965 0.0256139)
(0.710243 -0.7039 0.00889298)
(0.711056 -0.703046 0.0111796)
(0.711135 -0.702964 0.0113379)
(0.738138 -0.669799 0.0807561)
(0.71138 -0.702705 0.0119878)
(0.297771 -0.812056 -0.501893)
(0.710877 -0.703233 0.0107891)
(0.712242 -0.7018 0.0137192)
(0.723721 -0.686477 -0.0705515)
(0.60141 -0.697479 0.389653)
(0.71071 -0.703371 0.0126808)
(0.71105 -0.703066 0.0103038)
(0.71103 -0.703077 0.0108572)
(0.710989 -0.703112 0.011301)
(0.712433 -0.701601 0.0139528)
(0.521622 -0.804476 -0.284127)
(0.530777 -0.76804 -0.358315)
(0.711642 -0.702429 0.012623)
(0.552849 -0.765406 -0.32941)
(0.71094 -0.703164 0.0111407)
(0.71099 -0.703115 0.0110712)
(0.7105 -0.703629 0.00979035)
(0.710121 -0.704035 0.00791765)
(0.711295 -0.702788 0.0121833)
(0.243856 -0.658708 -0.711785)
(0.710923 -0.703188 0.0107336)
(0.725104 -0.647979 -0.233123)
(0.022952 -0.197324 0.98007)
(0.445407 -0.603201 -0.661635)
(0.692739 -0.644778 0.32307)
(0.557664 -0.650434 -0.515701)
(0.0287152 -0.0217557 -0.999351)
(0.711674 -0.702176 0.0216437)
(0.710985 -0.703123 0.0108973)
(0.61875 -0.6686 -0.412459)
(0.713616 -0.700422 -0.0126937)
(0.493522 -0.600713 0.628952)
(0.710937 -0.703183 0.0100981)
(0.710958 -0.703159 0.0103543)
(0.710971 -0.703126 0.0116075)
(0.710995 -0.703122 0.0102276)
(0.706068 -0.697675 -0.12132)
(0.72139 -0.68692 0.0879618)
(0.711 -0.70311 0.0107211)
(0.711583 -0.702599 -0.00199562)
(0.711712 -0.702343 0.0134392)
(0.711004 -0.703106 0.0107348)
(0.710683 -0.703441 0.0100673)
(0.710988 -0.703121 0.0108191)
(0.710815 -0.7033 0.010545)
(0.710935 -0.703156 0.0119491)
(0.71114 -0.702979 0.0100193)
(0.71099 -0.703116 0.0110475)
(0.710937 -0.703175 0.0107024)
(0.710984 -0.703123 0.010955)
(0.738848 -0.658406 -0.143546)
(0.710885 -0.70319 0.01294)
(0.701288 -0.625255 0.342418)
(0.612156 -0.531974 -0.585037)
(0.710941 -0.703154 0.0117255)
(0.708912 -0.705072 0.0178231)
(0.710957 -0.70315 0.0109804)
(0.711048 -0.703052 0.0113857)
(0.711038 -0.703052 0.0119336)
(0.710581 -0.703362 0.0188674)
(0.71222 -0.700787 -0.0405019)
(0.710988 -0.703117 0.0110241)
(0.710975 -0.70313 0.0110927)
(0.760637 -0.645648 -0.0676081)
(0.792672 -0.269675 -0.54676)
(0.710773 -0.703373 0.00827897)
(0.717762 -0.421539 -0.554187)
(0.710956 -0.703148 0.0111715)
(0.766842 -0.320424 0.556131)
(0.556314 -0.798964 -0.228409)
(-0.02046 -0.429532 -0.90282)
(0.707811 -0.698581 0.104825)
(0.316261 -0.528333 -0.787936)
(0.731292 -0.67731 0.0803911)
(0.510935 -0.496615 -0.701655)
(0.710909 -0.703195 0.0112203)
(0.710989 -0.703116 0.0110569)
(0.713572 -0.700329 -0.018833)
(0.711003 -0.703106 0.0108095)
(0.71251 -0.698121 -0.0704019)
)

// normal volume types

105
(
0
0
0
0
0
0
0
0
0
0
0
0
0
0
0
0
0
0
0
0
0
0
0
0
0
0
0
0
0
0
0
0
0
0
0
0
0
0
0
0
0
0
0
0
0
0
0
0
0
0
0
0
0
0
0
0
0
0
0
0
0
0
0
0
0
0
0
0
0
0
0
0
0
0
0
0
0
0
0
0
0
0
0
0
0
0
0
0
0
0
0
0
0
0
0
0
0
0
0
0
0
0
0
0
0
)

// normalDirections

161
(
2(1 -1)
2(1 -1)
2(1 -1)
2(1 -1)
2(1 -1)
2(1 -1)
2(1 -1)
2(1 -1)
2(1 -1)
2(1 -1)
2(1 -1)
2(1 -1)
2(1 -1)
2(1 -1)
2(1 -1)
2(1 -1)
2(1 -1)
2(1 -1)
2(1 -1)
2(1 -1)
2(1 -1)
2(1 -1)
2(1 -1)
2(1 -1)
2(1 -1)
2(1 -1)
2(1 -1)
2(1 -1)
2(1 -1)
1(1)
1(1)
1(1)
1(1)
1(1)
1(1)
1(1)
1(1)
1(1)
1(1)
1(1)
1(1)
1(1)
1(1)
1(1)
1(1)
1(1)
1(1)
1(1)
1(1)
1(1)
1(1)
1(1)
1(1)
1(1)
1(1)
1(1)
1(1)
1(1)
1(1)
1(1)
1(1)
1(1)
1(1)
1(1)
1(1)
1(1)
1(1)
1(1)
1(1)
1(1)
1(1)
1(1)
1(1)
1(1)
1(1)
1(1)
1(1)
1(1)
1(1)
1(1)
1(1)
1(1)
1(1)
1(1)
1(1)
1(1)
1(1)
1(1)
1(1)
1(1)
1(1)
1(1)
1(1)
1(1)
1(1)
1(1)
1(1)
1(1)
1(1)
1(1)
1(1)
1(1)
1(1)
1(1)
1(1)
1(1)
1(1)
1(1)
1(1)
1(1)
1(1)
1(1)
1(1)
1(1)
1(1)
1(1)
1(1)
1(1)
1(1)
1(1)
1(1)
1(1)
1(1)
1(1)
1(1)
1(1)
1(1)
1(1)
1(1)
1(1)
1(1)
1(1)
1(1)
1(1)
1(1)
1(1)
1(1)
1(1)
1(1)
1(1)
1(1)
1(1)
1(1)
1(1)
1(1)
1(1)
1(1)
1(1)
1(1)
1(1)
1(1)
1(1)
1(1)
1(1)
1(1)
1(1)
1(1)
1(1)
1(1)
1(1)
1(1)
)

// edgeNormals

161
(
2(7 9)
2(87 8)
2(88 16)
2(89 90)
2(25 26)
2(91 92)
2(38 93)
2(94 93)
2(46 47)
2(95 96)
2(97 98)
2(51 98)
2(55 99)
2(78 79)
2(8 28)
2(9 100)
2(13 15)
2(16 17)
2(100 89)
2(28 91)
2(29 91)
2(93 101)
2(45 95)
2(47 102)
2(49 97)
2(56 103)
2(103 99)
2(99 104)
2(77 78)
1(0)
1(0)
1(1)
1(1)
1(2)
1(2)
1(3)
1(3)
1(4)
1(4)
1(5)
1(6)
1(7)
1(8)
1(9)
1(10)
1(10)
1(11)
1(11)
1(12)
1(12)
1(13)
1(13)
1(14)
1(14)
1(15)
1(16)
1(17)
1(18)
1(18)
1(19)
1(20)
1(20)
1(21)
1(21)
1(22)
1(23)
1(23)
1(24)
1(24)
1(25)
1(25)
1(26)
1(27)
1(28)
1(29)
1(29)
1(30)
1(30)
1(31)
1(32)
1(33)
1(34)
1(34)
1(35)
1(35)
1(36)
1(36)
1(37)
1(37)
1(38)
1(39)
1(39)
1(40)
1(41)
1(42)
1(42)
1(43)
1(43)
1(44)
1(44)
1(45)
1(46)
1(47)
1(48)
1(48)
1(49)
1(49)
1(50)
1(51)
1(51)
1(52)
1(52)
1(53)
1(54)
1(55)
1(56)
1(56)
1(57)
1(57)
1(58)
1(59)
1(59)
1(60)
1(60)
1(61)
1(62)
1(62)
1(63)
1(64)
1(65)
1(65)
1(66)
1(67)
1(68)
1(68)
1(69)
1(70)
1(71)
1(71)
1(72)
1(73)
1(73)
1(74)
1(74)
1(75)
1(75)
1(76)
1(76)
1(77)
1(77)
1(78)
1(79)
1(80)
1(80)
1(81)
1(82)
1(82)
1(83)
1(84)
1(85)
1(86)
)

// featurePointNormals

35
(
2(87 8)
10(7 9 87 8 89 90 91 28 3 6)
2(7 9)
2(8 28)
2(9 100)
3(100 89 11)
3(16 17 11)
3(88 16 12)
3(13 15 12)
1(13)
2(13 15)
4(88 16 17 14)
4(89 90 17 19)
2(25 26)
2(25 26)
3(28 91 29)
3(91 92 29)
4(94 93 101 34)
5(38 93 94 35 36)
4(38 93 101 37)
4(46 47 102 39)
4(95 96 45 42)
3(45 95 44)
9(95 96 97 98 55 99 104 44 48)
2(46 47)
3(47 102 55)
3(49 97 50)
4(97 98 51 49)
3(51 98 54)
4(55 99 56 103)
2(56 103)
4(103 99 104 64)
3(78 79 77)
2(77 78)
3(78 79 84)
)

// featurePointEdges

35
(
3(1 29 42)
10(0 1 14 15 18 3 19 5 36 40)
3(0 41 43)
3(14 42 73)
3(15 43 44)
3(18 45 46)
3(17 47 55)
3(2 48 55)
3(16 49 50)
2(50 51)
3(16 51 54)
4(2 17 53 56)
3(3 56 59)
3(4 68 69)
3(4 70 71)
4(19 20 73 75)
4(20 5 74 77)
4(7 21 80 81)
4(6 7 84 85)
4(6 21 87 89)
4(8 23 91 92)
4(22 9 95 96)
3(22 98 100)
6(9 10 12 27 99 103)
3(8 101 102)
3(23 102 114)
3(24 105 107)
5(24 10 11 106 108)
3(11 109 113)
5(12 25 26 114 116)
3(25 115 118)
4(26 27 119 128)
4(28 13 148 151)
3(28 149 150)
3(13 150 158)
)

// regionEdges

132
(
29
30
31
32
33
34
35
36
37
38
39
40
41
42
43
44
45
46
47
48
49
50
51
52
53
54
55
56
57
58
59
60
61
62
63
64
65
66
67
68
69
70
71
72
73
74
75
76
77
78
79
80
81
82
83
84
85
86
87
88
89
90
91
92
93
94
95
96
97
98
99
100
101
102
103
104
105
106
107
108
109
110
111
112
113
114
115
116
117
118
119
120
121
122
123
124
125
126
127
128
129
130
131
132
133
134
135
136
137
138
139
140
141
142
143
144
145
146
147
148
149
150
151
152
153
154
155
156
157
158
159
160
)



// ************************************************************************* //
