/*--------------------------------*- C++ -*----------------------------------*\
| =========                 |                                                 |
| \\      /  F ield         | OpenFOAM: The Open Source CFD Toolbox           |
|  \\    /   O peration     | Version:  2312                                  |
|   \\  /    A nd           | Website:  www.openfoam.com                      |
|    \\/     M anipulation  |                                                 |
\*---------------------------------------------------------------------------*/
FoamFile
{
    version     2.0;
    format      ascii;
    arch        "LSB;label=64;scalar=64";
    class       extendedFeatureEdgeMesh;
    location    "constant/extendedFeatureEdgeMesh";
    object      out.extendedFeatureEdgeMesh;
}
// * * * * * * * * * * * * * * * * * * * * * * * * * * * * * * * * * * * * * //

// points

111
(
(0.478743 -0.340563 0.0191338)
(0.523031 -0.264718 0.0196329)
(0.52141 -0.268758 0.0145556)
(0.520079 -0.27157 0.0122438)
(0.483917 -0.333447 0.0117313)
(0.483451 -0.334227 0.0123821)
(0.508787 -0.293259 0.00137108)
(0.507096 -0.296312 0.00118707)
(0.485858 -0.330716 0.00921606)
(0.487197 -0.32879 0.00766157)
(0.488307 -0.327314 0.00658658)
(0.48893 -0.326256 0.00583323)
(0.488618 -0.326716 0.00614762)
(0.48941 -0.325534 0.00541177)
(0.489873 -0.324839 0.00499853)
(0.49192 -0.3218 0.00303685)
(0.478797 -0.340504 0.0189873)
(0.523038 -0.264788 0.0192131)
(0.523015 -0.265131 0.018374)
(0.522945 -0.265353 0.0179293)
(0.522853 -0.265626 0.0174343)
(0.52278 -0.265813 0.0171616)
(0.522647 -0.266124 0.0168052)
(0.522587 -0.266264 0.016645)
(0.522257 -0.266978 0.0159947)
(0.521981 -0.267586 0.0154047)
(0.521764 -0.268036 0.0150636)
(0.520647 -0.27055 0.0130123)
(0.478858 -0.340448 0.0187796)
(0.479532 -0.339822 0.016524)
(0.479323 -0.340063 0.0170226)
(0.479131 -0.340192 0.017876)
(0.519868 -0.27201 0.0118999)
(0.479575 -0.339772 0.0164253)
(0.479551 -0.339801 0.0164714)
(0.480046 -0.339122 0.0157526)
(0.479723 -0.339569 0.0162081)
(0.481199 -0.337439 0.0145254)
(0.480959 -0.337797 0.0147548)
(0.480435 -0.338554 0.0153398)
(0.519428 -0.272953 0.0110743)
(0.519171 -0.273484 0.0106772)
(0.518693 -0.274458 0.00999767)
(0.51854 -0.274777 0.00975398)
(0.51774 -0.27641 0.00860369)
(0.481543 -0.336934 0.0141721)
(0.517593 -0.276715 0.00837111)
(0.51725 -0.2774 0.00794796)
(0.481816 -0.336538 0.0138715)
(0.482044 -0.336202 0.0136405)
(0.481884 -0.33644 0.0137883)
(0.482695 -0.335222 0.0130747)
(0.516809 -0.278297 0.00732692)
(0.516526 -0.27885 0.0070254)
(0.516003 -0.279871 0.00647084)
(0.515621 -0.280633 0.00599963)
(0.515053 -0.281753 0.00535939)
(0.514618 -0.282589 0.00495505)
(0.483849 -0.333545 0.0118076)
(0.514374 -0.283069 0.00468858)
(0.51415 -0.283514 0.00441883)
(0.513764 -0.284246 0.004109)
(0.512959 -0.285777 0.00343705)
(0.512834 -0.286015 0.00333042)
(0.512163 -0.287291 0.00276773)
(0.511684 -0.288181 0.00245547)
(0.510864 -0.289701 0.00194241)
(0.510738 -0.28993 0.00188329)
(0.510514 -0.290331 0.00180099)
(0.50973 -0.291748 0.0014687)
(0.509414 -0.292306 0.00139163)
(0.508227 -0.294367 0.00124214)
(0.507428 -0.295744 0.00119288)
(0.484135 -0.333149 0.0114124)
(0.506399 -0.297554 0.000962429)
(0.506068 -0.298128 0.000926144)
(0.505873 -0.298485 0.00082352)
(0.505488 -0.299158 0.000753112)
(0.505193 -0.299668 0.000728332)
(0.504719 -0.300463 0.000792086)
(0.502919 -0.303493 0.000983022)
(0.501936 -0.305151 0.00106619)
(0.50128 -0.306245 0.00118509)
(0.500163 -0.308067 0.00155681)
(0.499321 -0.309437 0.00184315)
(0.498452 -0.3109 0.00193707)
(0.497917 -0.311796 0.00201074)
(0.484526 -0.332627 0.0107804)
(0.485193 -0.331675 0.00997806)
(0.484616 -0.332509 0.010629)
(0.485268 -0.331563 0.00991236)
(0.486652 -0.329587 0.00823682)
(0.48613 -0.330334 0.00886557)
(0.487571 -0.328252 0.0072302)
(0.488785 -0.326476 0.00595556)
(0.489159 -0.325927 0.00556804)
(0.489607 -0.32524 0.00523242)
(0.490088 -0.3246 0.00444952)
(0.489886 -0.324838 0.00491259)
(0.490732 -0.323693 0.00361914)
(0.490594 -0.323882 0.0038218)
(0.49707 -0.31315 0.00203143)
(0.49211 -0.321498 0.00294299)
(0.492037 -0.321616 0.00296426)
(0.494103 -0.318428 0.0015061)
(0.493689 -0.319116 0.00158612)
(0.493169 -0.319882 0.00211027)
(0.49515 -0.316636 0.00152045)
(0.494417 -0.317899 0.0014698)
(0.496304 -0.314609 0.00175821)
(0.496045 -0.315074 0.00166627)
)

// edges

123
(
(3 2)
(7 6)
(8 9)
(12 11)
(11 13)
(13 14)
(14 15)
(10 14)
(5 4)
(8 10)
(10 11)
(10 15)
(16 0)
(0 1)
(1 17)
(17 18)
(18 19)
(19 20)
(20 21)
(21 22)
(22 23)
(23 24)
(24 25)
(25 26)
(2 27)
(27 3)
(26 2)
(28 16)
(29 30)
(30 31)
(31 28)
(3 32)
(33 34)
(34 29)
(35 36)
(36 33)
(37 38)
(38 39)
(39 35)
(32 40)
(40 41)
(42 43)
(43 44)
(41 42)
(45 37)
(44 46)
(46 47)
(48 45)
(49 50)
(50 48)
(51 49)
(47 52)
(52 53)
(53 54)
(54 55)
(55 56)
(56 57)
(4 58)
(58 5)
(5 51)
(57 59)
(59 60)
(60 61)
(62 63)
(63 64)
(61 62)
(64 65)
(65 66)
(66 67)
(67 68)
(68 69)
(69 70)
(6 71)
(71 72)
(70 6)
(73 4)
(72 7)
(7 74)
(74 75)
(75 76)
(76 77)
(77 78)
(78 79)
(80 81)
(81 82)
(79 80)
(82 83)
(84 85)
(85 86)
(83 84)
(87 73)
(88 89)
(89 87)
(90 88)
(91 92)
(92 8)
(8 90)
(9 91)
(10 93)
(93 9)
(11 94)
(94 12)
(12 10)
(13 95)
(95 11)
(14 96)
(96 13)
(97 98)
(98 14)
(15 99)
(99 100)
(100 97)
(86 101)
(102 103)
(103 15)
(104 105)
(105 106)
(106 102)
(107 108)
(108 104)
(109 110)
(110 107)
(101 109)
)

// concaveStart mixedStart nonFeatureStart
0 0 16
// internalStart flatStart openStart multipleStart
8 12 12 123
// normals

79
(
(-0.857315 0.501384 -0.116728)
(-0.982892 0.17845 -0.0455984)
(-0.858416 0.499822 -0.115328)
(-0.857202 0.501629 -0.116501)
(-0.856965 0.501963 -0.116805)
(-0.857204 0.501665 -0.116334)
(-0.46339 0.683378 -0.564149)
(-0.857286 0.501562 -0.116172)
(-0.857304 0.501379 -0.116831)
(-0.856873 0.50218 -0.116554)
(-0.857305 0.501379 -0.116824)
(-0.85633 0.502741 -0.118112)
(-0.854901 0.50639 -0.112753)
(-0.858829 0.497512 -0.122041)
(-0.857223 0.501401 -0.117325)
(-0.857041 0.501891 -0.116557)
(-0.856836 0.502099 -0.117167)
(-0.858519 0.500124 -0.113231)
(-0.856931 0.501983 -0.116972)
(-0.856631 0.502991 -0.114824)
(-0.85648 0.502508 -0.118015)
(-0.856622 0.503013 -0.114788)
(-0.857727 0.499922 -0.119931)
(-0.856863 0.502467 -0.115378)
(-0.856455 0.502513 -0.11818)
(-0.857136 0.501753 -0.116452)
(-0.857494 0.501369 -0.115471)
(-0.856679 0.502252 -0.117664)
(-0.353895 0.71496 0.602985)
(-0.845539 0.481234 -0.231252)
(-0.898376 0.43774 0.0361243)
(-0.857357 0.501561 -0.115651)
(-0.865457 0.493308 -0.0873604)
(-0.857433 0.501485 -0.115418)
(-0.857505 0.501495 -0.114842)
(-0.856152 0.502277 -0.12133)
(-0.856912 0.501918 -0.117389)
(-0.664497 0.408267 -0.625909)
(-0.757535 0.507358 -0.410765)
(-0.857059 0.501838 -0.116658)
(-0.763267 0.450597 -0.463018)
(-0.856906 0.501883 -0.11758)
(-0.856908 0.501917 -0.117425)
(-0.85709 0.501886 -0.116221)
(-0.857148 0.501982 -0.115377)
(-0.857139 0.501931 -0.115662)
(-0.857047 0.501813 -0.11685)
(-0.857303 0.502232 -0.113111)
(-0.857067 0.50188 -0.116417)
(-0.857059 0.501837 -0.116662)
(-0.857082 0.501765 -0.116802)
(-0.857426 0.500856 -0.118167)
(-0.857228 0.501416 -0.117226)
(-0.857059 0.501858 -0.116571)
(-0.856933 0.502181 -0.116105)
(-0.546029 0.720969 0.426679)
(-0.856862 0.502437 -0.11552)
(-0.228378 0.650511 0.724347)
(-0.857166 0.501533 -0.117178)
(-0.858457 0.497127 -0.126158)
(-0.857799 0.500331 -0.117686)
(-0.857093 0.501672 -0.117123)
(-0.857166 0.501602 -0.116883)
(-0.847417 0.530568 0.0195189)
(-0.857029 0.502083 -0.115816)
(-0.857039 0.501949 -0.116324)
(-0.857096 0.501682 -0.117056)
(-0.857116 0.501886 -0.116029)
(-0.857017 0.501861 -0.116865)
(-0.861645 0.481894 -0.159201)
(-0.874761 0.480809 0.0601301)
(-0.567236 0.718847 0.401873)
(-0.651001 0.655805 0.382254)
(-0.606603 0.66427 0.436781)
(-0.857062 0.501839 -0.116627)
(0.0796861 0.502183 0.861082)
(-0.855227 0.518188 0.00820574)
(-0.85914 0.478834 -0.180544)
(-0.854534 0.514603 -0.0703883)
)

// normal volume types

79
(
0
0
0
0
0
0
0
0
0
0
0
0
0
0
0
0
0
0
0
0
0
0
0
0
0
0
0
0
0
0
0
0
0
0
0
0
0
0
0
0
0
0
0
0
0
0
0
0
0
0
0
0
0
0
0
0
0
0
0
0
0
0
0
0
0
0
0
0
0
0
0
0
0
0
0
0
0
0
0
)

// normalDirections

123
(
2(1 -1)
2(1 -1)
2(1 -1)
2(1 -1)
2(1 -1)
2(1 -1)
2(1 -1)
2(1 -1)
2(1 -1)
2(1 -1)
2(1 -1)
2(1 -1)
1(1)
1(1)
1(1)
1(1)
1(1)
1(1)
1(1)
1(1)
1(1)
1(1)
1(1)
1(1)
1(1)
1(1)
1(1)
1(1)
1(1)
1(1)
1(1)
1(1)
1(1)
1(1)
1(1)
1(1)
1(1)
1(1)
1(1)
1(1)
1(1)
1(1)
1(1)
1(1)
1(1)
1(1)
1(1)
1(1)
1(1)
1(1)
1(1)
1(1)
1(1)
1(1)
1(1)
1(1)
1(1)
1(1)
1(1)
1(1)
1(1)
1(1)
1(1)
1(1)
1(1)
1(1)
1(1)
1(1)
1(1)
1(1)
1(1)
1(1)
1(1)
1(1)
1(1)
1(1)
1(1)
1(1)
1(1)
1(1)
1(1)
1(1)
1(1)
1(1)
1(1)
1(1)
1(1)
1(1)
1(1)
1(1)
1(1)
1(1)
1(1)
1(1)
1(1)
1(1)
1(1)
1(1)
1(1)
1(1)
1(1)
1(1)
1(1)
1(1)
1(1)
1(1)
1(1)
1(1)
1(1)
1(1)
1(1)
1(1)
1(1)
1(1)
1(1)
1(1)
1(1)
1(1)
1(1)
1(1)
1(1)
1(1)
1(1)
)

// edgeNormals

123
(
2(6 11)
2(40 70)
2(54 71)
2(56 57)
2(58 72)
2(59 73)
2(74 75)
2(73 75)
2(28 76)
2(71 77)
2(57 72)
2(75 78)
1(0)
1(0)
1(1)
1(1)
1(2)
1(2)
1(3)
1(3)
1(4)
1(4)
1(5)
1(5)
1(6)
1(6)
1(7)
1(8)
1(9)
1(9)
1(10)
1(11)
1(12)
1(12)
1(13)
1(13)
1(14)
1(14)
1(15)
1(16)
1(16)
1(17)
1(17)
1(18)
1(19)
1(20)
1(20)
1(21)
1(22)
1(22)
1(23)
1(24)
1(24)
1(25)
1(26)
1(26)
1(27)
1(28)
1(28)
1(29)
1(30)
1(31)
1(31)
1(32)
1(32)
1(33)
1(34)
1(34)
1(35)
1(35)
1(36)
1(36)
1(37)
1(37)
1(38)
1(39)
1(40)
1(41)
1(41)
1(42)
1(42)
1(43)
1(43)
1(44)
1(44)
1(45)
1(46)
1(47)
1(47)
1(48)
1(49)
1(50)
1(50)
1(51)
1(52)
1(52)
1(53)
1(54)
1(55)
1(55)
1(56)
1(56)
1(57)
1(58)
1(58)
1(59)
1(59)
1(60)
1(60)
1(61)
1(61)
1(62)
1(63)
1(64)
1(64)
1(65)
1(65)
1(66)
1(67)
1(67)
1(68)
1(68)
1(69)
)

// featurePointNormals

16
(
1(0)
2(0 1)
3(6 11 7)
2(6 11)
3(28 76 39)
3(28 76 29)
4(40 70 37 38)
3(40 70 41)
3(54 71 77)
3(54 71 55)
8(73 75 71 77 57 72 78 55)
4(56 57 58 72)
2(56 57)
4(58 72 59 73)
5(59 73 74 75 60)
3(74 75 78)
)

// featurePointEdges

16
(
2(12 13)
2(13 14)
3(0 24 26)
3(0 25 31)
3(8 57 75)
3(8 58 59)
3(1 72 74)
3(1 76 77)
4(2 9 95 96)
3(2 97 99)
6(9 10 7 11 98 102)
5(3 10 4 100 104)
3(3 101 102)
4(4 5 103 106)
5(5 6 7 105 108)
4(6 11 109 114)
)

// regionEdges

111
(
12
13
14
15
16
17
18
19
20
21
22
23
24
25
26
27
28
29
30
31
32
33
34
35
36
37
38
39
40
41
42
43
44
45
46
47
48
49
50
51
52
53
54
55
56
57
58
59
60
61
62
63
64
65
66
67
68
69
70
71
72
73
74
75
76
77
78
79
80
81
82
83
84
85
86
87
88
89
90
91
92
93
94
95
96
97
98
99
100
101
102
103
104
105
106
107
108
109
110
111
112
113
114
115
116
117
118
119
120
121
122
)



// ************************************************************************* //
