/*--------------------------------*- C++ -*----------------------------------*\
| =========                 |                                                 |
| \\      /  F ield         | OpenFOAM: The Open Source CFD Toolbox           |
|  \\    /   O peration     | Version:  2312                                  |
|   \\  /    A nd           | Website:  www.openfoam.com                      |
|    \\/     M anipulation  |                                                 |
\*---------------------------------------------------------------------------*/
FoamFile
{
    version     2.0;
    format      ascii;
    arch        "LSB;label=64;scalar=64";
    class       extendedFeatureEdgeMesh;
    location    "constant/extendedFeatureEdgeMesh";
    object      si.extendedFeatureEdgeMesh;
}
// * * * * * * * * * * * * * * * * * * * * * * * * * * * * * * * * * * * * * //

// points

3958
(
(-0.356342 0.367602 0.0174673)
(-0.356448 0.367633 0.0174668)
(-0.356696 0.367704 0.0174163)
(-0.356664 0.368734 0.0174697)
(-0.356647 0.368408 0.0175509)
(-0.356778 0.368094 0.0175366)
(-0.357532 0.36974 0.017469)
(-0.344771 0.358771 0.0174939)
(-0.342958 0.357384 0.0174981)
(-0.34275 0.357212 0.0174985)
(-0.335447 0.351899 0.0174529)
(-0.332028 0.349173 0.0175237)
(-0.331278 0.348488 0.017525)
(-0.364002 0.374656 0.0173609)
(-0.326105 0.344316 0.0175361)
(-0.364882 0.375355 0.0174521)
(-0.373217 0.382238 0.0173993)
(-0.374957 0.38367 0.0174311)
(-0.379852 0.386989 0.0174183)
(-0.378966 0.386372 0.0174471)
(-0.381964 0.388727 0.0174139)
(-0.384702 0.391429 0.0173263)
(-0.384223 0.391238 0.0174777)
(-0.385334 0.392108 0.0173633)
(-0.385015 0.392037 0.0174883)
(-0.3859 0.392679 0.0174083)
(-0.385657 0.392719 0.017502)
(-0.38553 0.392378 0.0173795)
(-0.3861 0.392698 0.0173368)
(-0.386435 0.392997 0.0173098)
(-0.382472 0.389243 0.0174132)
(-0.382117 0.388876 0.0174137)
(-0.387459 0.394144 0.0174057)
(-0.388065 0.394634 0.0174872)
(-0.387676 0.394601 0.0175004)
(-0.388581 0.394224 0.0173868)
(-0.403847 0.404507 0.0173168)
(-0.407466 0.407372 0.0173523)
(-0.324574 0.343374 0.0175615)
(-0.323304 0.342375 0.0174751)
(-0.322297 0.341567 0.0175455)
(-0.321014 0.340596 0.0175484)
(-0.3196 0.339393 0.0175513)
(-0.31842 0.338296 0.0175533)
(-0.317687 0.337736 0.0175549)
(-0.316158 0.336462 0.0176205)
(-0.315336 0.335719 0.0175628)
(-0.313685 0.334398 0.0175631)
(-0.31336 0.334131 0.0175638)
(-0.312144 0.333325 0.0175866)
(-0.310986 0.332212 0.0175689)
(-0.310213 0.331601 0.0176345)
(-0.309513 0.330839 0.0175714)
(-0.30801 0.329568 0.0176294)
(-0.307262 0.328891 0.0176342)
(-0.30599 0.327694 0.0175778)
(-0.304155 0.32624 0.0175819)
(-0.303561 0.325837 0.0176003)
(-0.303169 0.32552 0.0175843)
(-0.302804 0.325285 0.0176513)
(-0.302752 0.325187 0.0175852)
(-0.302238 0.32466 0.0175806)
(-0.30182 0.324317 0.0175867)
(-0.299993 0.322631 0.0175899)
(-0.299578 0.322306 0.0175908)
(-0.298942 0.321864 0.0176421)
(-0.298283 0.321253 0.0175936)
(-0.298052 0.321005 0.0175252)
(-0.297272 0.320524 0.0175327)
(-0.296674 0.319856 0.0174977)
(-0.295317 0.318672 0.0175993)
(-0.29512 0.318481 0.0175996)
(-0.29458 0.317946 0.0176004)
(-0.294285 0.317682 0.0176009)
(-0.294015 0.317446 0.0176014)
(-0.293337 0.316917 0.0176029)
(-0.293209 0.316774 0.0176031)
(-0.292909 0.316471 0.0175677)
(-0.291643 0.315691 0.0176071)
(-0.290568 0.314804 0.0176093)
(-0.28987 0.314295 0.0176597)
(-0.289414 0.313897 0.0176119)
(-0.286439 0.311211 0.0176172)
(-0.286056 0.310939 0.0176182)
(-0.28405 0.309333 0.0177134)
(-0.283379 0.308785 0.0176239)
(-0.282418 0.308011 0.017626)
(-0.281097 0.307015 0.0176805)
(-0.280466 0.306486 0.0176304)
(-0.279083 0.305289 0.0177273)
(-0.278659 0.304841 0.0176336)
(-0.276387 0.302583 0.0176197)
(-0.274456 0.301124 0.0176414)
(-0.274118 0.300817 0.0175674)
(-0.272869 0.299829 0.0176447)
(-0.271979 0.299006 0.0177242)
(-0.270397 0.297634 0.0176493)
(-0.263661 0.291066 0.0176334)
(-0.263436 0.290876 0.0175614)
(-0.262758 0.290342 0.0176616)
(-0.262417 0.290073 0.0176624)
(-0.261584 0.289391 0.0176641)
(-0.260307 0.288292 0.0177512)
(-0.258136 0.28643 0.0176709)
(-0.257601 0.28596 0.0177624)
(-0.255742 0.284195 0.0176749)
(-0.255282 0.283751 0.0176756)
(-0.248994 0.278018 0.0176867)
(-0.247767 0.277079 0.0176586)
(-0.243255 0.27291 0.0176973)
(-0.242328 0.272089 0.017699)
(-0.232783 0.263687 0.017717)
(-0.231747 0.262749 0.0178144)
(-0.231476 0.262424 0.017719)
(-0.228301 0.259736 0.0177254)
(-0.227277 0.258845 0.0177799)
(-0.226503 0.258006 0.0177282)
(-0.225563 0.257167 0.0176426)
(-0.224973 0.25657 0.0177308)
(-0.216178 0.249133 0.0177484)
(-0.215687 0.248697 0.017835)
(-0.214153 0.247475 0.0177527)
(-0.213342 0.246713 0.017754)
(-0.212053 0.245593 0.0177565)
(-0.21137 0.245107 0.0177331)
(-0.210791 0.244546 0.0177591)
(-0.209507 0.243495 0.0177618)
(-0.204415 0.239019 0.0177714)
(-0.20011 0.235632 0.0177809)
(-0.198702 0.23458 0.0177397)
(-0.198136 0.234083 0.0177853)
(-0.194055 0.230638 0.0177935)
(-0.192373 0.229169 0.0178447)
(-0.19109 0.227903 0.0178651)
(-0.190033 0.226923 0.0178004)
(-0.184085 0.221811 0.017809)
(-0.183179 0.220965 0.0178136)
(-0.182141 0.22008 0.0177392)
(-0.181375 0.219223 0.0177526)
(-0.180755 0.218609 0.0178173)
(-0.179258 0.217308 0.0178202)
(-0.178373 0.216579 0.0178221)
(-0.176444 0.214921 0.0178258)
(-0.175664 0.214199 0.0178272)
(-0.174957 0.213546 0.0178284)
(-0.174115 0.212932 0.0178878)
(-0.173849 0.212639 0.0178307)
(-0.1716 0.210493 0.0178343)
(-0.165337 0.204954 0.017846)
(-0.164416 0.204105 0.0178476)
(-0.161088 0.201193 0.0178663)
(-0.159753 0.199995 0.0178563)
(-0.159246 0.199483 0.0178571)
(-0.158818 0.199079 0.017918)
(-0.158336 0.19869 0.0178588)
(-0.157831 0.198272 0.0178598)
(-0.157431 0.197809 0.0178602)
(-0.408945 0.408913 0.0173503)
(-0.408592 0.408859 0.0173519)
(-0.410498 0.409232 0.0173436)
(-0.458569 0.361921 0.0169287)
(-0.411079 0.409949 0.0173797)
(-0.411025 0.409613 0.017315)
(-0.456066 0.360048 0.0169346)
(-0.450105 0.354568 0.016945)
(-0.451534 0.356035 0.0169866)
(-0.448717 0.35317 0.016947)
(-0.442425 0.346997 0.0170446)
(-0.445763 0.350323 0.0169516)
(-0.440534 0.344965 0.0169587)
(-0.437976 0.342626 0.0169632)
(-0.432018 0.336737 0.0169721)
(-0.434317 0.33909 0.0169689)
(-0.425055 0.329423 0.0169808)
(-0.426735 0.330961 0.0169779)
(-0.42456 0.328912 0.0169589)
(-0.42038 0.32489 0.0169881)
(-0.419848 0.324455 0.0169893)
(-0.418399 0.323363 0.0169513)
(-0.410258 0.315171 0.0170042)
(-0.410652 0.315621 0.0170038)
(-0.409312 0.314129 0.0170542)
(-0.408679 0.313535 0.0170063)
(-0.406632 0.311511 0.0170093)
(-0.40269 0.307399 0.0170313)
(-0.401567 0.30628 0.017016)
(-0.399691 0.3044 0.0170118)
(-0.401041 0.305759 0.0170168)
(-0.39682 0.301137 0.0170215)
(-0.394395 0.298449 0.017024)
(-0.392327 0.296754 0.0170284)
(-0.391001 0.295585 0.0170308)
(-0.389054 0.293616 0.0170408)
(-0.390717 0.295331 0.0170314)
(-0.388032 0.292697 0.0170789)
(-0.386951 0.291697 0.0170373)
(-0.380292 0.286002 0.0169812)
(-0.380846 0.286147 0.017106)
(-0.379458 0.285239 0.0170519)
(-0.378646 0.284386 0.0170529)
(-0.379197 0.284969 0.0170522)
(-0.378206 0.283994 0.0170537)
(-0.377813 0.283518 0.017054)
(-0.377818 0.283597 0.0170542)
(-0.377519 0.283203 0.0170543)
(-0.376979 0.282689 0.0170552)
(-0.377245 0.282822 0.0171459)
(-0.375954 0.281717 0.0170569)
(-0.375174 0.281027 0.0169792)
(-0.374878 0.280838 0.0169625)
(-0.374513 0.280498 0.0170598)
(-0.150792 0.192099 0.0178731)
(-0.149818 0.19127 0.0178751)
(-0.148794 0.190398 0.0179226)
(-0.37186 0.277866 0.0169849)
(-0.372188 0.278328 0.0170637)
(-0.371562 0.277755 0.0169893)
(-0.371226 0.277526 0.0170112)
(-0.145726 0.187547 0.0178823)
(-0.145105 0.186965 0.0178834)
(-0.370412 0.276615 0.0170665)
(-0.370301 0.276498 0.0170666)
(-0.368631 0.275091 0.0170626)
(-0.368023 0.274448 0.017023)
(-0.367721 0.273998 0.0170706)
(-0.367736 0.274226 0.0170444)
(-0.367184 0.273395 0.0170712)
(-0.366883 0.273145 0.0170718)
(-0.36707 0.273133 0.0171506)
(-0.366189 0.272756 0.0170739)
(-0.366451 0.272952 0.0170733)
(-0.365738 0.272267 0.0170596)
(-0.366051 0.272456 0.0171388)
(-0.140964 0.183235 0.0178908)
(-0.140113 0.182464 0.0178284)
(-0.139941 0.182307 0.0178927)
(-0.363996 0.271151 0.0170434)
(-0.364913 0.271426 0.0170217)
(-0.136494 0.179428 0.0178997)
(-0.136484 0.17943 0.0178998)
(-0.361506 0.268473 0.0171021)
(-0.361127 0.267919 0.0170224)
(-0.360314 0.267466 0.0170845)
(-0.360504 0.267742 0.0170465)
(-0.134647 0.177647 0.0179026)
(-0.134222 0.177299 0.0179035)
(-0.360094 0.267015 0.017084)
(-0.133618 0.176771 0.0179734)
(-0.132872 0.176207 0.0179064)
(-0.132342 0.175787 0.0179116)
(-0.131436 0.174971 0.0178319)
(-0.130255 0.174084 0.017912)
(-0.36028 0.266532 0.017141)
(-0.359461 0.265611 0.01705)
(-0.358909 0.26536 0.0170553)
(-0.358418 0.265473 0.0171094)
(-0.357328 0.264446 0.0171548)
(-0.358196 0.265266 0.0170906)
(-0.129221 0.173478 0.017915)
(-0.357188 0.263764 0.0170869)
(-0.128821 0.173178 0.0179474)
(-0.128316 0.17273 0.0178646)
(-0.127129 0.171742 0.0179121)
(-0.125571 0.17064 0.0179232)
(-0.125195 0.170482 0.0179246)
(-0.125264 0.169987 0.0178617)
(-0.357216 0.263555 0.017086)
(-0.124027 0.169003 0.0180062)
(-0.355092 0.261729 0.0170902)
(-0.355126 0.261947 0.0170908)
(-0.354154 0.261065 0.0170925)
(-0.35435 0.261027 0.0170914)
(-0.354079 0.260741 0.0170917)
(-0.35418 0.260827 0.0170915)
(-0.350963 0.258681 0.0171241)
(-0.350701 0.258082 0.0171554)
(-0.350487 0.258325 0.0171238)
(-0.350558 0.257538 0.017098)
(-0.122638 0.168798 0.0179207)
(-0.122115 0.167531 0.0178644)
(-0.121177 0.166753 0.0178969)
(-0.119944 0.165829 0.0179337)
(-0.119132 0.165149 0.0180052)
(-0.116252 0.16269 0.0179416)
(-0.350359 0.257487 0.0170315)
(-0.35038 0.257063 0.0170972)
(-0.350019 0.256779 0.017098)
(-0.349632 0.256879 0.0171003)
(-0.34983 0.256728 0.0171797)
(-0.349532 0.256797 0.0171005)
(-0.349042 0.256763 0.0171029)
(-0.348933 0.25615 0.0171012)
(-0.348406 0.25557 0.0170976)
(-0.347713 0.255503 0.0171333)
(-0.347776 0.254979 0.0170299)
(-0.347645 0.255313 0.0171052)
(-0.34748 0.254315 0.0171019)
(-0.108414 0.155997 0.0178874)
(-0.107195 0.158161 0.0179997)
(-0.106494 0.154566 0.0179612)
(-0.346824 0.254281 0.0171051)
(-0.346579 0.254498 0.0170412)
(-0.104978 0.153765 0.0180266)
(-0.345827 0.254009 0.0171092)
(-0.345865 0.254039 0.0170131)
(-0.346245 0.254431 0.0170617)
(-0.10102 0.153156 0.0179995)
(-0.101612 0.150908 0.0179279)
(-0.344882 0.253161 0.0171109)
(-0.0986707 0.152539 0.0180368)
(-0.0965089 0.149606 0.017927)
(-0.0959136 0.149829 0.0179981)
(-0.09551 0.149546 0.0179991)
(-0.344705 0.251953 0.0170561)
(-0.345157 0.252359 0.0170917)
(-0.343943 0.252043 0.0171305)
(-0.343641 0.251832 0.0171124)
(-0.343492 0.251555 0.0171121)
(-0.343409 0.250684 0.0171094)
(-0.342717 0.250467 0.0171121)
(-0.342918 0.25043 0.017111)
(-0.343142 0.250547 0.0170197)
(-0.342255 0.250309 0.0171139)
(-0.342395 0.250445 0.0171136)
(-0.342174 0.250268 0.0170197)
(-0.341366 0.249836 0.0171928)
(-0.341171 0.24958 0.0171167)
(-0.341082 0.249223 0.0171159)
(-0.341101 0.248723 0.017114)
(-0.339989 0.247545 0.0171827)
(-0.338756 0.246763 0.0170803)
(-0.33935 0.246969 0.0171165)
(-0.339457 0.247108 0.0171164)
(-0.338449 0.246644 0.0171199)
(-0.338059 0.246154 0.0171825)
(-0.336949 0.245124 0.0170915)
(-0.336412 0.244818 0.0170788)
(-0.3363 0.24422 0.017122)
(-0.336289 0.244484 0.0170298)
(-0.335723 0.243721 0.0171231)
(-0.333748 0.242046 0.0171271)
(-0.333013 0.241125 0.0171274)
(-0.331189 0.2395 0.0171864)
(-0.329885 0.238374 0.0170815)
(-0.329038 0.237739 0.0171353)
(-0.326807 0.235736 0.0171394)
(-0.327774 0.236668 0.0171378)
(-0.325782 0.234771 0.0171897)
(-0.324189 0.234027 0.0171464)
(-0.31035 0.220948 0.0171692)
(-0.307955 0.218905 0.0171739)
(-0.307315 0.218427 0.0172356)
(-0.291947 0.204439 0.0172016)
(-0.289999 0.202585 0.0172058)
(-0.288334 0.201257 0.0172094)
(-0.286943 0.199996 0.0172119)
(-0.286007 0.199328 0.0171259)
(-0.284702 0.198087 0.0172163)
(-0.284412 0.197751 0.0172166)
(-0.283787 0.197194 0.0172865)
(-0.284333 0.197569 0.017218)
(-0.282815 0.196433 0.0172199)
(-0.0951526 0.149669 0.0180014)
(-0.0936665 0.14748 0.0179599)
(-0.0926705 0.147574 0.018095)
(-0.281278 0.195036 0.0172227)
(-0.0903969 0.145174 0.0180092)
(-0.0902925 0.145179 0.0180098)
(-0.0896938 0.144352 0.0180098)
(-0.0879816 0.143486 0.0180025)
(-0.0868138 0.141562 0.0180143)
(-0.0855296 0.141416 0.0180322)
(-0.0849282 0.14073 0.0180287)
(-0.277795 0.191713 0.0172052)
(-0.276765 0.190707 0.0172298)
(-0.275558 0.189568 0.0172318)
(-0.0840214 0.140424 0.0180243)
(-0.273255 0.187343 0.0172354)
(-0.272644 0.186885 0.0171485)
(-0.0817065 0.137329 0.0179697)
(-0.0805651 0.13784 0.0181093)
(-0.0793987 0.137269 0.0180984)
(-0.0782281 0.134204 0.0179729)
(-0.0697306 0.128461 0.0180534)
(-0.0686347 0.128012 0.0180345)
(-0.0660453 0.12561 0.0180617)
(-0.0653348 0.125381 0.0181615)
(-0.065022 0.124019 0.0181569)
(-0.0633918 0.122308 0.0180632)
(-0.060926 0.121165 0.0180844)
(-0.267727 0.18215 0.0172446)
(-0.26762 0.182026 0.0172447)
(-0.267036 0.181436 0.0172456)
(-0.267254 0.181566 0.0173177)
(-0.265944 0.180341 0.0172471)
(-0.266753 0.181099 0.0171757)
(-0.265326 0.179811 0.0172483)
(-0.264054 0.178643 0.0172014)
(-0.264773 0.179359 0.0171541)
(-0.0610925 0.118964 0.0180053)
(-0.263616 0.178254 0.0172514)
(-0.263251 0.177913 0.017252)
(-0.261987 0.176712 0.017254)
(-0.2611 0.175863 0.0172555)
(-0.260698 0.175479 0.0172561)
(-0.260171 0.175085 0.0172053)
(-0.04706 0.110738 0.0181041)
(-0.04694 0.110762 0.0181048)
(-0.25551 0.170866 0.0172657)
(-0.255877 0.171227 0.0172651)
(-0.254366 0.169745 0.0171813)
(-0.253716 0.169096 0.0172684)
(-0.251462 0.166881 0.0172718)
(-0.252204 0.167602 0.0172706)
(-0.249393 0.16501 0.0173236)
(-0.0460453 0.110291 0.0181812)
(-0.044589 0.108887 0.0181099)
(-0.040542 0.104918 0.018116)
(-0.0402721 0.104935 0.0181945)
(-0.0393326 0.104261 0.0180867)
(-0.0361986 0.10101 0.0180709)
(-0.0337023 0.0991827 0.0180701)
(-0.0317837 0.0976142 0.0180592)
(-0.233528 0.150801 0.017316)
(-0.23268 0.149752 0.0172541)
(-0.0160709 0.084604 0.0180757)
(-0.225515 0.143141 0.0172785)
(-0.00794918 0.0774593 0.0180862)
(-0.00608956 0.0769725 0.018284)
(-0.00537518 0.075545 0.0181988)
(-0.00464316 0.0749799 0.0181895)
(-0.00371696 0.0745365 0.0181926)
(-0.00232554 0.072663 0.0181929)
(0.000602076 0.0698482 0.0182324)
(0.00144957 0.0689923 0.0181581)
(-0.222558 0.140364 0.0173511)
(-0.222916 0.140779 0.0173219)
(-0.222153 0.140086 0.0173232)
(-0.221471 0.139507 0.017343)
(0.00588006 0.0646884 0.0182055)
(0.00674674 0.0637711 0.0182066)
(-0.218613 0.137155 0.0173305)
(-0.217789 0.136316 0.0172857)
(-0.218439 0.136963 0.0173307)
(-0.216914 0.135471 0.0173331)
(-0.215988 0.134606 0.0173346)
(-0.215978 0.13466 0.0173349)
(-0.212145 0.131271 0.017342)
(-0.211777 0.130942 0.0173427)
(-0.2113 0.13052 0.0173749)
(-0.208073 0.127509 0.017349)
(-0.207441 0.126819 0.0173894)
(-0.207465 0.126771 0.0173494)
(-0.206408 0.125843 0.0173514)
(-0.206969 0.126468 0.0173465)
(-0.20628 0.125806 0.0172773)
(-0.205957 0.125634 0.017296)
(0.0179795 0.0559812 0.0183184)
(-0.205423 0.125026 0.0173534)
(-0.204729 0.124376 0.0173546)
(-0.204718 0.12439 0.0173547)
(0.0210663 0.0538453 0.0182432)
(0.0214638 0.0531117 0.0182426)
(-0.203594 0.123235 0.0173562)
(-0.204437 0.124161 0.0173553)
(-0.202984 0.122772 0.0173446)
(-0.202466 0.122322 0.0173586)
(-0.201905 0.121964 0.0172925)
(-0.199735 0.120072 0.0173373)
(-0.198744 0.119094 0.0173658)
(-0.19928 0.119609 0.017365)
(0.025953 0.0479803 0.0182467)
(0.0263446 0.0478262 0.0182482)
(0.0264859 0.0476803 0.0181808)
(0.0268398 0.047149 0.0182482)
(0.0269749 0.0470656 0.0182486)
(0.0272125 0.0466455 0.0181486)
(-0.196581 0.11701 0.0174103)
(-0.197167 0.117547 0.0173682)
(0.0286411 0.0457225 0.0182522)
(0.0288108 0.0457255 0.0182531)
(0.0291425 0.0451672 0.0181742)
(-0.196085 0.116635 0.0173704)
(0.0319681 0.0427984 0.0182585)
(0.0325246 0.0415638 0.0182989)
(0.0330105 0.041248 0.0183559)
(-0.192867 0.113651 0.0174654)
(-0.193478 0.114122 0.0173745)
(0.0336324 0.041062 0.0182606)
(0.0342766 0.0409795 0.0182845)
(0.0346144 0.0404932 0.0182045)
(0.0350173 0.0397718 0.0182629)
(0.0353427 0.0392007 0.0182625)
(0.0363238 0.0382494 0.018264)
(-0.192535 0.113334 0.0174183)
(-0.192489 0.113145 0.017376)
(-0.190529 0.111411 0.0173796)
(-0.191357 0.112335 0.0173576)
(0.0382281 0.0366338 0.0182678)
(0.0398833 0.0351114 0.0183444)
(0.0421786 0.032708 0.0182736)
(0.0429979 0.0316915 0.0182741)
(0.0453376 0.0293889 0.0182439)
(0.0459592 0.0291859 0.0182375)
(0.0476645 0.0271493 0.0182813)
(0.0523482 0.0186018 0.0182219)
(-0.189457 0.110383 0.0174729)
(-0.189882 0.110937 0.0173812)
(0.0525761 0.018288 0.0182741)
(-0.187773 0.109051 0.0173579)
(-0.186752 0.108128 0.0172922)
(0.0535479 0.0174017 0.0181907)
(0.0557797 0.0163666 0.0182834)
(-0.185675 0.10685 0.0173877)
(0.0564194 0.0159614 0.0181939)
(0.0575244 0.0151949 0.018288)
(-0.182951 0.104493 0.0173929)
(-0.183597 0.105328 0.0173344)
(0.0580489 0.0147197 0.0182588)
(0.059321 0.0137193 0.0182193)
(-0.175816 0.0977451 0.0173793)
(-0.173466 0.0957933 0.0173395)
(-0.170295 0.0925188 0.0174849)
(-0.169452 0.0915346 0.0174144)
(-0.170029 0.0922031 0.0174139)
(-0.161208 0.0846856 0.0173349)
(-0.156762 0.0793826 0.0174347)
(-0.157583 0.0811742 0.0173484)
(-0.156224 0.0794811 0.0174378)
(-0.154342 0.0787366 0.0174446)
(-0.148722 0.072859 0.0174518)
(-0.1463 0.0705848 0.017362)
(-0.145039 0.0685767 0.0173678)
(-0.143602 0.0673376 0.0174578)
(-0.143803 0.0674932 0.0174573)
(-0.143935 0.0680567 0.0173665)
(-0.14323 0.0666875 0.0174573)
(-0.142251 0.0657456 0.0174588)
(-0.139153 0.0632862 0.0174966)
(-0.138455 0.0622084 0.017371)
(-0.138398 0.0620803 0.0174651)
(-0.134684 0.0601602 0.017477)
(-0.131581 0.0581178 0.0174853)
(-0.130672 0.0577328 0.0173966)
(-0.129342 0.0564952 0.0174908)
(-0.129898 0.0571819 0.01741)
(-0.125122 0.0514458 0.0174939)
(-0.125414 0.0513168 0.0174919)
(-0.124519 0.0504905 0.0174934)
(-0.124429 0.050881 0.0174953)
(-0.121807 0.0500307 0.0175055)
(-0.121603 0.048275 0.0175086)
(-0.116498 0.0429931 0.0175978)
(-0.111222 0.0398816 0.0174343)
(-0.110954 0.0392932 0.0175216)
(-0.109707 0.0369054 0.0175193)
(-0.110341 0.0381081 0.0175204)
(-0.108099 0.0360013 0.0175283)
(-0.106844 0.0340864 0.0175236)
(-0.107737 0.0354429 0.0175596)
(-0.102698 0.0319651 0.0175369)
(-0.102752 0.0322515 0.0175377)
(-0.102185 0.0317463 0.0175387)
(-0.101668 0.0304259 0.0175366)
(-0.101238 0.0303935 0.0175386)
(-0.0996453 0.0288218 0.017541)
(-0.0996406 0.0289195 0.0175414)
(-0.0984503 0.0266547 0.0175392)
(-0.0984277 0.0266852 0.0175394)
(-0.0916855 0.0217124 0.0175556)
(-0.0898491 0.0202538 0.0175596)
(-0.0870243 0.0175954 0.0175643)
(-0.0871223 0.0174753 0.0175634)
(-0.0850458 0.015452 0.0175666)
(-0.084759 0.0145854 0.0175964)
(-0.0742884 0.00524057 0.0175841)
(-0.075307 0.00605801 0.0176796)
(0.0600787 0.013763 0.0182957)
(0.06307 0.0136472 0.0183105)
(0.0638879 0.0127147 0.0183112)
(-0.0715164 0.00319906 0.0175907)
(-0.0703239 0.000514172 0.0175039)
(0.0642865 0.0102282 0.0183187)
(0.0647358 0.00981957 0.0182826)
(-0.0636137 -0.00370358 0.0176058)
(-0.0627023 -0.00450908 0.0176075)
(-0.061126 -0.00628455 0.017609)
(-0.0600856 -0.00708588 0.0176333)
(-0.0591775 -0.00789444 0.0176131)
(0.0690403 0.00862777 0.0183225)
(0.0703068 0.00809677 0.0184254)
(-0.0576682 -0.0096385 0.0176144)
(-0.0576291 -0.00987415 0.0176138)
(-0.0556639 -0.0115537 0.0176176)
(-0.0542377 -0.0128232 0.0177098)
(-0.0552692 -0.0119706 0.0176181)
(-0.055281 -0.0119304 0.0176182)
(-0.0523494 -0.0145448 0.0176236)
(-0.051273 -0.0154149 0.0176259)
(-0.0475023 -0.0180795 0.0176353)
(0.0793506 -0.000268435 0.0183426)
(0.0852948 -0.00586406 0.018417)
(0.0869051 -0.00750641 0.0183546)
(0.0928119 -0.0123378 0.0183671)
(0.095071 -0.0140655 0.0183222)
(0.0960344 -0.0152254 0.0184568)
(0.0976229 -0.0167357 0.0183755)
(0.0981104 -0.017458 0.0182979)
(-0.0350025 -0.0282343 0.0177525)
(-0.0334415 -0.0301469 0.0176629)
(-0.031743 -0.0319691 0.0176649)
(-0.0317856 -0.0320042 0.0176645)
(-0.0273215 -0.0361447 0.0176722)
(-0.0281606 -0.0352533 0.017657)
(-0.019921 -0.0406769 0.0176933)
(-0.0188556 -0.0410712 0.0176972)
(-0.0162671 -0.0416936 0.0177081)
(-0.0148117 -0.0429572 0.0177109)
(-0.0148118 -0.0429835 0.0177108)
(0.100684 -0.0201071 0.0183788)
(0.101936 -0.0204738 0.0183948)
(0.104359 -0.0226903 0.0183881)
(0.105313 -0.0236932 0.0182955)
(0.107348 -0.025983 0.0183913)
(0.115251 -0.0322012 0.0184088)
(0.117343 -0.0347013 0.0184104)
(0.117972 -0.0354674 0.0184638)
(0.118485 -0.0361966 0.0184107)
(0.119913 -0.0368926 0.0183818)
(0.12078 -0.0375504 0.0183235)
(0.122344 -0.0395653 0.0184181)
(0.122882 -0.0400534 0.0184489)
(0.129997 -0.0453833 0.0183801)
(0.13145 -0.0465935 0.0184388)
(0.133106 -0.0479223 0.0184819)
(0.1339 -0.0486202 0.018358)
(0.134825 -0.0493904 0.0184549)
(0.136421 -0.0506235 0.0185004)
(0.137489 -0.0514809 0.0185126)
(0.137623 -0.0518095 0.0184512)
(0.138994 -0.0538312 0.0184508)
(0.139297 -0.0542077 0.018451)
(0.140656 -0.0547231 0.0185048)
(0.140704 -0.0546587 0.0185475)
(0.141681 -0.0550616 0.0184599)
(0.143262 -0.0559087 0.0184877)
(0.145542 -0.059313 0.0184299)
(0.14617 -0.0602773 0.0184638)
(0.152077 -0.0665886 0.0184709)
(0.153529 -0.0698552 0.0184664)
(0.15802 -0.0692638 0.0185713)
(0.159346 -0.0701464 0.0184948)
(0.0366661 -0.0918515 0.0177946)
(0.0373507 -0.092578 0.0177955)
(0.0378207 -0.092964 0.0177965)
(0.0381916 -0.0932071 0.0178702)
(0.0386276 -0.093658 0.017798)
(0.0399829 -0.0947194 0.0178011)
(0.040517 -0.0954285 0.0178012)
(0.043194 -0.0976773 0.0178066)
(0.0442266 -0.0984161 0.0178661)
(0.0453029 -0.0991486 0.0177509)
(0.186255 -0.0919861 0.0185362)
(0.187717 -0.0939211 0.0184786)
(0.189295 -0.0940688 0.018621)
(0.18984 -0.0957168 0.0185567)
(0.19417 -0.0974044 0.0185725)
(0.194982 -0.0987192 0.0185495)
(0.0569652 -0.109459 0.0178337)
(0.0607378 -0.112779 0.0178408)
(0.0623509 -0.114232 0.0178437)
(0.0630154 -0.114742 0.0179323)
(0.0642858 -0.115721 0.0178481)
(0.19587 -0.0991477 0.0184884)
(0.0652332 -0.116506 0.0178501)
(0.196182 -0.0988403 0.0185775)
(0.196545 -0.0984602 0.0185808)
(0.196978 -0.0983457 0.0185834)
(0.197328 -0.0984943 0.0185846)
(0.067793 -0.117846 0.0179459)
(0.0687103 -0.118494 0.0178605)
(0.203984 -0.10474 0.0185957)
(0.204275 -0.104948 0.0185964)
(0.205157 -0.105243 0.0186637)
(0.205182 -0.10556 0.0185988)
(0.205673 -0.105974 0.0185998)
(0.205744 -0.106465 0.0185774)
(0.206528 -0.107466 0.0185987)
(0.207255 -0.10871 0.0186879)
(0.207609 -0.110062 0.0185948)
(0.0770314 -0.125444 0.0179459)
(0.0761211 -0.124245 0.0178772)
(0.0779108 -0.126335 0.0178787)
(0.0822116 -0.130481 0.0178999)
(0.0807125 -0.128892 0.0178837)
(0.213463 -0.115616 0.0185285)
(0.213729 -0.115122 0.0186934)
(0.215097 -0.115424 0.0186133)
(0.215294 -0.115744 0.0186132)
(0.216042 -0.115984 0.0187037)
(0.216753 -0.116129 0.0186192)
(0.226121 -0.120047 0.0186524)
(0.226718 -0.11992 0.0186559)
(0.22784 -0.120549 0.0186593)
(0.228005 -0.12115 0.018658)
(0.228099 -0.12122 0.0186582)
(0.230025 -0.121702 0.0186283)
(0.103774 -0.147313 0.0179338)
(0.230292 -0.122203 0.0186658)
(0.231021 -0.12238 0.0187318)
(0.231463 -0.123459 0.0186671)
(0.230269 -0.124897 0.0186559)
(0.229946 -0.124768 0.0186547)
(0.112038 -0.153749 0.0178798)
(0.113843 -0.154922 0.0179894)
(0.114701 -0.155388 0.0179599)
(0.228606 -0.125433 0.0186421)
(0.228472 -0.12662 0.0186425)
(0.229877 -0.126341 0.0186487)
(0.229889 -0.126147 0.0186494)
(0.230877 -0.126523 0.0186441)
(0.231294 -0.12803 0.0186497)
(0.231048 -0.12828 0.0186476)
(0.231459 -0.128911 0.0187349)
(0.232816 -0.129146 0.0186534)
(0.232807 -0.130006 0.0186162)
(0.235304 -0.131576 0.0186572)
(0.236892 -0.132429 0.0186244)
(0.127393 -0.162639 0.017998)
(0.237483 -0.132898 0.0187146)
(0.128236 -0.163055 0.0180007)
(0.128941 -0.163545 0.0180025)
(0.128827 -0.163612 0.0180017)
(0.129661 -0.164577 0.0180024)
(0.129978 -0.166111 0.0179985)
(0.133371 -0.169027 0.0180051)
(0.134395 -0.169305 0.0180093)
(0.134143 -0.169396 0.0181026)
(0.134894 -0.169198 0.0180122)
(0.239246 -0.134267 0.018641)
(0.136163 -0.167975 0.0180231)
(0.240508 -0.13442 0.0186733)
(0.138464 -0.169006 0.018031)
(0.138708 -0.170657 0.0179652)
(0.141554 -0.172152 0.0180353)
(0.142989 -0.173281 0.0180385)
(0.142851 -0.173268 0.0180378)
(0.148179 -0.176838 0.0180519)
(0.153293 -0.181602 0.0180855)
(0.153825 -0.182872 0.0180586)
(0.158784 -0.186814 0.0180695)
(0.159276 -0.187085 0.018071)
(0.159995 -0.185707 0.0180796)
(0.159942 -0.186784 0.0180755)
(0.239965 -0.133748 0.018673)
(0.238841 -0.133204 0.0187174)
(0.237264 -0.131918 0.0185982)
(0.236415 -0.131297 0.0187561)
(0.236213 -0.129569 0.0187477)
(0.237896 -0.128247 0.0186824)
(0.239482 -0.127414 0.0186044)
(0.245721 -0.132301 0.0187074)
(0.245468 -0.132514 0.0187053)
(0.160951 -0.185548 0.0180198)
(0.24532 -0.133018 0.0187027)
(0.163228 -0.188395 0.0180863)
(0.161987 -0.189598 0.0180043)
(0.162623 -0.189011 0.018081)
(0.161726 -0.189845 0.0180734)
(0.161968 -0.190208 0.0180733)
(0.162876 -0.190311 0.0180775)
(0.163148 -0.189404 0.0180822)
(0.163285 -0.189832 0.0180879)
(0.246839 -0.134148 0.0187063)
(0.247112 -0.133678 0.0187094)
(0.24796 -0.13346 0.0187145)
(0.249842 -0.13476 0.0187193)
(0.250686 -0.134645 0.0188111)
(0.252337 -0.136069 0.018774)
(0.246328 -0.134326 0.0186391)
(0.252988 -0.137667 0.0187247)
(0.252894 -0.139506 0.0187691)
(0.252439 -0.139327 0.0187352)
(0.250975 -0.140683 0.0187036)
(0.247524 -0.137742 0.0186123)
(0.24575 -0.136646 0.0187481)
(0.245803 -0.13417 0.018701)
(0.245368 -0.133587 0.0186924)
(0.1635 -0.188569 0.018087)
(0.242915 -0.134796 0.0186063)
(0.165266 -0.189897 0.0180911)
(0.242204 -0.135128 0.0186427)
(0.242535 -0.136079 0.0186768)
(0.165533 -0.190547 0.0181217)
(0.250179 -0.141265 0.0186693)
(0.165288 -0.191274 0.0180863)
(0.250697 -0.141276 0.0187001)
(0.251095 -0.141677 0.0187006)
(0.254263 -0.143692 0.0186444)
(0.254866 -0.144188 0.0186944)
(0.256396 -0.145319 0.0186238)
(0.258943 -0.146592 0.0188136)
(0.259529 -0.147029 0.0187247)
(0.260702 -0.147728 0.0187274)
(0.168166 -0.193671 0.0180922)
(0.170105 -0.194812 0.0180979)
(0.263469 -0.148827 0.0187374)
(0.16957 -0.194902 0.0180948)
(0.263727 -0.149534 0.0187362)
(0.265767 -0.151098 0.0186533)
(0.266129 -0.151048 0.0187429)
(0.267247 -0.151914 0.0187076)
(0.17036 -0.196311 0.0181177)
(0.171221 -0.196076 0.018099)
(0.174578 -0.197344 0.0181114)
(0.27405 -0.156035 0.0186877)
(0.27457 -0.156093 0.0187674)
(0.174754 -0.19725 0.0181126)
(0.174909 -0.197456 0.0181126)
(0.276507 -0.157537 0.0186725)
(0.278029 -0.158371 0.01873)
(0.279442 -0.159136 0.0187654)
(0.280575 -0.159751 0.0187845)
(0.17509 -0.198998 0.018108)
(0.177738 -0.199543 0.0181227)
(0.178598 -0.200375 0.0181208)
(0.28421 -0.161984 0.0187619)
(0.285156 -0.162591 0.0187975)
(0.285385 -0.162752 0.018798)
(0.285662 -0.162868 0.0188598)
(0.2867 -0.163267 0.0188028)
(0.28682 -0.163366 0.0188031)
(0.287478 -0.163455 0.0188762)
(0.288875 -0.164646 0.0188089)
(0.289396 -0.164949 0.0188574)
(0.18152 -0.203107 0.0181257)
(0.181516 -0.203136 0.0181255)
(0.293555 -0.167545 0.0188221)
(0.29474 -0.168117 0.018826)
(0.295944 -0.168704 0.01883)
(0.296356 -0.168882 0.0188314)
(0.294083 -0.167802 0.0188679)
(0.297509 -0.169379 0.0189315)
(0.297887 -0.169544 0.0188368)
(0.297977 -0.169701 0.0187592)
(0.298771 -0.170074 0.0188393)
(0.300074 -0.170957 0.0188494)
(0.301042 -0.171715 0.0188003)
(0.301261 -0.171919 0.0187557)
(0.302149 -0.172225 0.0188873)
(0.302421 -0.172379 0.0187617)
(0.303503 -0.172871 0.0189221)
(0.304743 -0.173523 0.0188571)
(0.307005 -0.174909 0.0188322)
(0.30781 -0.175339 0.0188661)
(0.308045 -0.175482 0.0188668)
(0.308599 -0.17578 0.0188685)
(0.309104 -0.176024 0.0188617)
(0.309662 -0.176297 0.018872)
(0.311289 -0.177242 0.0188768)
(0.311648 -0.177459 0.0189228)
(0.312891 -0.178188 0.0188196)
(0.31551 -0.17958 0.0188897)
(0.316574 -0.18014 0.0189668)
(0.318189 -0.181043 0.018898)
(0.318527 -0.181236 0.018899)
(0.32023 -0.182003 0.0188174)
(0.322621 -0.183309 0.0189123)
(0.325049 -0.184643 0.0189197)
(0.325441 -0.184791 0.0189212)
(0.326988 -0.185487 0.0190243)
(0.327882 -0.186117 0.0188962)
(0.329003 -0.186847 0.0189318)
(0.329286 -0.186989 0.0189327)
(0.330393 -0.187414 0.0189594)
(0.330948 -0.187744 0.0189384)
(0.331981 -0.188243 0.0189418)
(0.332506 -0.188499 0.0188894)
(0.335294 -0.189902 0.0189526)
(0.340454 -0.192445 0.0189695)
(0.343458 -0.193884 0.0189795)
(0.349521 -0.196922 0.0189993)
(0.351203 -0.197607 0.0189579)
(0.353218 -0.198547 0.0190121)
(0.371134 -0.207522 0.0190704)
(0.375927 -0.209481 0.0190876)
(0.384464 -0.213734 0.0191154)
(0.391007 -0.216905 0.0191371)
(0.396588 -0.219711 0.0192192)
(0.398156 -0.220359 0.0191608)
(0.401758 -0.222036 0.0192073)
(0.404387 -0.223315 0.0191817)
(0.406554 -0.224324 0.019189)
(0.184772 -0.204387 0.0181375)
(0.187523 -0.20774 0.0180847)
(0.187514 -0.207266 0.018168)
(0.188046 -0.206968 0.0181447)
(0.187996 -0.208117 0.0180561)
(0.188969 -0.207858 0.0181803)
(0.189448 -0.20822 0.0181473)
(0.189883 -0.209652 0.0181443)
(0.189742 -0.208902 0.0181463)
(0.189949 -0.208607 0.0181485)
(0.189632 -0.209976 0.0181419)
(0.19004 -0.210443 0.0181423)
(0.423739 -0.232029 0.0192482)
(0.424253 -0.232224 0.0192501)
(0.425745 -0.232884 0.0193224)
(0.429625 -0.234412 0.0192694)
(0.432752 -0.2357 0.0192805)
(0.19433 -0.212395 0.0181569)
(0.194607 -0.212201 0.018159)
(0.442906 -0.239995 0.0193476)
(0.445359 -0.240857 0.0193254)
(0.445596 -0.2411 0.0193816)
(0.445817 -0.241306 0.0193054)
(0.445889 -0.241698 0.0192848)
(0.446117 -0.241865 0.0193323)
(0.19487 -0.212398 0.0181597)
(0.194747 -0.21269 0.018158)
(0.197262 -0.213274 0.0181686)
(0.196906 -0.21356 0.0181658)
(0.447932 -0.242508 0.0193418)
(0.448348 -0.242546 0.0193161)
(0.44912 -0.242307 0.0194307)
(0.450767 -0.242879 0.0193458)
(0.199313 -0.214321 0.0181752)
(0.199473 -0.215043 0.0181734)
(0.199254 -0.214705 0.0181735)
(0.199461 -0.215117 0.0181731)
(0.199864 -0.215599 0.0182658)
(0.201948 -0.21609 0.0181822)
(0.202063 -0.216177 0.0181824)
(0.202165 -0.217927 0.0180783)
(0.20215 -0.21759 0.0181368)
(0.202308 -0.217298 0.0181518)