/*--------------------------------*- C++ -*----------------------------------*\
| =========                 |                                                 |
| \\      /  F ield         | OpenFOAM: The Open Source CFD Toolbox           |
|  \\    /   O peration     | Version:  2312                                  |
|   \\  /    A nd           | Website:  www.openfoam.com                      |
|    \\/     M anipulation  |                                                 |
\*---------------------------------------------------------------------------*/
FoamFile
{
    version     2.0;
    format      ascii;
    arch        "LSB;label=64;scalar=64";
    class       extendedFeatureEdgeMesh;
    location    "constant/extendedFeatureEdgeMesh";
    object      walls.extendedFeatureEdgeMesh;
}
// * * * * * * * * * * * * * * * * * * * * * * * * * * * * * * * * * * * * * //

// points

19745
(
(0.432714 -0.256625 0.00260895)
(0.432227 -0.258143 0.00229365)
(0.431799 -0.255829 0.00267606)
(0.431422 -0.256311 0.00256052)
(0.431066 -0.256311 0.00252181)
(0.430794 -0.25563 0.00248937)
(0.430539 -0.255467 0.00263894)
(0.429814 -0.25638 0.00242061)
(0.429145 -0.257774 0.00197575)
(0.428727 -0.256311 0.00227436)
(0.428836 -0.258161 0.00174161)
(0.428324 -0.257764 0.00150816)
(0.428534 -0.258005 0.0017628)
(0.428189 -0.258446 0.00150029)
(0.428063 -0.256187 0.00228166)
(0.427592 -0.257248 0.00171713)
(0.426588 -0.256062 0.00168276)
(0.425841 -0.255915 0.00187279)
(0.425225 -0.255871 0.00206639)
(0.424615 -0.255799 0.00211682)
(0.423724 -0.254355 0.00227954)
(0.423065 -0.254594 0.00220727)
(0.424645 -0.25608 0.00143675)
(0.424412 -0.256619 0.00132061)
(0.423876 -0.256502 0.00133183)
(0.42445 -0.255884 0.0020752)
(0.423631 -0.255821 0.00202733)
(0.424163 -0.257252 0.00152158)
(0.386454 -0.253208 -0.00172375)
(0.386715 -0.25885 -0.00183944)
(0.384415 -0.257893 -0.0016911)
(0.387119 -0.261304 -0.0018983)
(0.385883 -0.260922 -0.00224638)
(0.381526 -0.254641 -0.00202196)
(0.381829 -0.257224 -0.00219154)
(0.389933 -0.23952 0.00169282)
(0.389376 -0.239612 0.00151848)
(0.388109 -0.237456 0.00230391)
(0.388241 -0.238253 0.00193221)
(0.387279 -0.237519 0.00201225)
(0.383211 -0.235852 0.00169471)
(0.383597 -0.235371 0.00213332)
(0.386033 -0.239074 0.00112622)
(0.384918 -0.238171 0.00121602)
(0.380108 -0.24214 -0.00105411)
(0.379509 -0.242407 -0.00124765)
(0.380968 -0.237668 0.00043574)
(0.37742 -0.241883 -0.00127401)
(0.376003 -0.241978 -0.00139683)
(0.37952 -0.247307 -0.00208812)
(0.378258 -0.245978 -0.0018765)
(0.378196 -0.24557 -0.00174557)
(0.381289 -0.252957 -0.00226924)
(0.377254 -0.251722 -0.00241985)
(0.377455 -0.249988 -0.00214038)
(0.376285 -0.249 -0.00243738)
(0.376111 -0.242827 -0.00147649)
(0.372085 -0.246497 -0.00243521)
(0.370167 -0.245016 -0.00235151)
(-0.314249 0.243652 0.00584961)
(-0.314476 0.243772 0.00602607)
(-0.314671 0.243526 0.00601233)
(-0.316795 0.244731 0.00634027)
(-0.318746 0.247088 0.00626139)
(-0.319418 0.249259 0.00566202)
(-0.319268 0.250592 0.00476839)
(-0.32115 0.249025 0.00643808)
(-0.317292 0.24288 0.00746302)
(-0.316938 0.244518 0.00655195)
(-0.316748 0.243737 0.00700066)
(-0.318309 0.244613 0.00708175)
(-0.318401 0.245004 0.00714185)
(-0.317153 0.243187 0.00736288)
(-0.320097 0.246308 0.00730269)
(-0.319346 0.244887 0.00736941)
(-0.319447 0.24518 0.00739142)
(-0.320507 0.245758 0.00778205)
(-0.320392 0.24564 0.00770552)
(-0.32068 0.245861 0.00772152)
(-0.32072 0.245486 0.00778299)
(-0.32194 0.246856 0.00785675)
(-0.317224 0.241031 0.00838059)
(-0.317511 0.241156 0.00837929)
(-0.318807 0.2409 0.0091475)
(-0.319151 0.240489 0.00904905)
(-0.322882 0.244564 0.0090159)
(-0.323145 0.244208 0.00939227)
(-0.323321 0.243971 0.00951993)
(-0.322486 0.251277 0.00609089)
(-0.321896 0.250044 0.00620197)
(-0.321963 0.249936 0.00648993)
(-0.322367 0.249399 0.00664232)
(-0.323349 0.250606 0.00650749)
(-0.322903 0.252775 0.005369)
(-0.323568 0.252033 0.00611063)
(-0.324396 0.25267 0.00615666)
(-0.323936 0.251874 0.00636009)
(-0.323617 0.250757 0.00669251)
(-0.324444 0.252272 0.0064017)
(-0.324363 0.253911 0.00574248)
(-0.32445 0.253596 0.00575734)
(-0.324832 0.254295 0.00580784)
(-0.324998 0.253999 0.00584435)
(-0.324751 0.253392 0.00594009)
(-0.325158 0.253272 0.00613347)
(-0.325395 0.253463 0.0061098)
(-0.326385 0.253307 0.00672684)
(-0.326656 0.253766 0.00678622)
(-0.326283 0.255909 0.00534268)
(-0.326711 0.256239 0.00536649)
(-0.326508 0.256039 0.00553533)
(-0.326725 0.254859 0.00637514)
(-0.326795 0.254512 0.00631353)
(-0.32701 0.255057 0.00636859)
(-0.323729 0.247525 0.00807936)
(-0.323742 0.246965 0.00829338)
(-0.323699 0.247289 0.00834893)
(-0.323804 0.247404 0.00841812)
(-0.323949 0.247482 0.00836285)
(-0.324017 0.247124 0.00844803)
(-0.32537 0.251435 0.00709497)
(-0.325674 0.251536 0.00712272)
(-0.325617 0.250566 0.00756013)
(-0.326088 0.250962 0.00764381)
(-0.325887 0.250716 0.00773791)
(-0.325063 0.249296 0.00765057)
(-0.324641 0.248908 0.00794188)
(-0.32479 0.249139 0.0079708)
(-0.325028 0.249206 0.00796339)
(-0.324855 0.249049 0.00805027)
(-0.326527 0.249466 0.00850631)
(-0.32663 0.249692 0.00853804)
(-0.326918 0.249816 0.00853702)
(-0.326713 0.249577 0.00864878)
(-0.329349 0.254707 0.00729371)
(-0.32703 0.25167 0.00764056)
(-0.327408 0.252728 0.007595)
(-0.327163 0.252048 0.00767676)
(-0.327329 0.251819 0.00784201)
(-0.329914 0.253959 0.00748476)
(-0.325864 0.248043 0.00891785)
(-0.324638 0.247155 0.00889123)
(-0.325675 0.247885 0.00904406)
(-0.325008 0.245765 0.00952045)
(-0.3251 0.245616 0.009753)
(-0.325873 0.247657 0.00901254)
(-0.327068 0.248602 0.00891794)
(-0.326937 0.248887 0.00898848)
(-0.326948 0.247224 0.00942724)
(-0.326903 0.247268 0.00963122)
(-0.326882 0.247058 0.00990445)
(-0.326964 0.247166 0.0099803)
(-0.327155 0.247267 0.00991964)
(-0.327005 0.246776 0.00984482)
(-0.327382 0.247067 0.00986582)
(-0.32718 0.246884 0.0099676)
(-0.327736 0.247715 0.0099512)
(-0.327866 0.247981 0.00998864)
(-0.328168 0.248047 0.00997598)
(-0.327958 0.247853 0.0100973)
(-0.328143 0.247615 0.0100644)
(-0.327815 0.249611 0.00906781)
(-0.331082 0.252302 0.00925834)
(-0.327613 0.24936 0.00922043)
(-0.328223 0.249003 0.0096036)
(-0.32873 0.249398 0.00959882)
(-0.328508 0.249154 0.00973557)
(-0.32845 0.250271 0.00911167)
(-0.328802 0.250341 0.00912154)
(-0.328572 0.250101 0.00926033)
(-0.330652 0.251767 0.00924024)
(-0.330813 0.252165 0.00925656)
(-0.330972 0.251924 0.0095515)
(-0.331284 0.251541 0.00941698)
(-0.331172 0.251678 0.00953886)
(-0.328021 0.256713 0.0059602)
(-0.328633 0.257231 0.00609589)
(-0.3288 0.257327 0.00600863)
(-0.329186 0.258143 0.00550418)
(-0.329391 0.258248 0.00573312)
(-0.330044 0.257377 0.006526)
(-0.329062 0.256632 0.00648107)
(-0.329138 0.256318 0.00642047)
(-0.329366 0.256493 0.00643313)
(-0.32925 0.256385 0.00650897)
(-0.330145 0.257089 0.00650205)
(-0.329436 0.256132 0.00668886)
(-0.329235 0.255834 0.00693774)
(-0.329624 0.255899 0.00694627)
(-0.329574 0.254897 0.00725356)
(-0.329404 0.255129 0.0071202)
(-0.32994 0.258205 0.00607208)
(-0.331028 0.259081 0.00624582)
(-0.331224 0.259192 0.00614349)
(-0.332066 0.258947 0.00664983)
(-0.331632 0.25772 0.0070859)
(-0.331673 0.257375 0.00701822)
(-0.332346 0.258317 0.00719657)
(-0.332538 0.258416 0.00713557)
(-0.330544 0.255632 0.00710951)
(-0.33179 0.260098 0.0058457)
(-0.332731 0.259447 0.00668373)
(-0.332834 0.260431 0.00623304)
(-0.335325 0.261924 0.00666762)
(-0.335282 0.262015 0.00601579)
(-0.335956 0.261561 0.00744001)
(-0.336142 0.261786 0.00742875)
(-0.3362 0.261147 0.00772343)
(-0.332677 0.253731 0.00915576)
(-0.332213 0.256386 0.00804508)
(-0.33234 0.256098 0.00803228)
(-0.33263 0.256854 0.00808702)
(-0.332911 0.256916 0.00807539)
(-0.332714 0.256739 0.00816832)
(-0.333752 0.25674 0.00828536)
(-0.333065 0.256173 0.00855839)
(-0.333319 0.255915 0.00867948)
(-0.33359 0.256582 0.00863626)
(-0.333701 0.256633 0.00857159)
(-0.333688 0.255726 0.00903758)
(-0.333937 0.255542 0.00898497)
(-0.334346 0.255533 0.00925934)
(-0.33348 0.254673 0.00949851)
(-0.333778 0.254526 0.00943564)
(-0.33434 0.255334 0.00953337)
(-0.334412 0.255425 0.00958936)
(-0.334558 0.255501 0.00954547)
(-0.334466 0.255055 0.00947388)
(-0.334789 0.255304 0.00949188)
(-0.334621 0.255155 0.00956275)
(-0.333231 0.258101 0.00768641)
(-0.333372 0.258164 0.00764146)
(-0.334496 0.259029 0.007704)
(-0.336165 0.260234 0.00815947)
(-0.333577 0.257459 0.00813968)
(-0.333674 0.257127 0.00805136)
(-0.334133 0.257826 0.0082467)
(-0.334085 0.257942 0.00816257)
(-0.334271 0.257962 0.00815099)
(-0.334477 0.257744 0.00809596)
(-0.334339 0.25761 0.00820639)
(-0.335622 0.256305 0.0096039)
(-0.335206 0.255994 0.00957681)
(-0.335838 0.257583 0.00918578)
(-0.33569 0.257271 0.00916097)
(-0.336151 0.257673 0.00923882)
(-0.335954 0.257414 0.00939701)
(-0.337143 0.259909 0.00857309)
(-0.337198 0.259816 0.0089077)
(-0.337457 0.259481 0.00906224)
(-0.337644 0.259228 0.0089782)
(-0.33707 0.257479 0.00969486)
(-0.335323 0.256228 0.00961234)
(-0.3354 0.256122 0.0097039)
(-0.336717 0.257395 0.00970675)
(-0.336842 0.257226 0.00980765)
(-0.334432 0.254397 0.00966889)
(-0.334545 0.254233 0.00989237)
(-0.334735 0.252948 0.0109267)
(-0.334827 0.252648 0.0109056)
(-0.335239 0.253366 0.0109936)
(-0.336451 0.255199 0.010232)
(-0.336595 0.25552 0.0103112)
(-0.336525 0.255225 0.0105595)
(-0.336636 0.255445 0.0106033)
(-0.336895 0.255512 0.0105944)
(-0.336709 0.255344 0.0106914)
(-0.336895 0.254065 0.0112648)
(-0.335684 0.262999 0.00645807)
(-0.335743 0.262621 0.00667749)
(-0.337911 0.263946 0.00675615)
(-0.335904 0.262645 0.00699214)
(-0.335861 0.262242 0.00692743)
(-0.337199 0.26282 0.00722739)
(-0.336541 0.26227 0.00739608)
(-0.336468 0.261815 0.00742069)
(-0.337451 0.262614 0.00751147)
(-0.337576 0.264472 0.00649192)
(-0.339517 0.264534 0.00765756)
(-0.34007 0.265273 0.00772406)
(-0.339654 0.264266 0.00759792)
(-0.339707 0.264638 0.00780682)
(-0.339887 0.264372 0.0077931)
(-0.340364 0.266587 0.00675115)
(-0.339647 0.26553 0.0072045)
(-0.339824 0.265666 0.00721433)
(-0.339953 0.265284 0.00759412)
(-0.340499 0.265557 0.00775834)
(-0.341004 0.266574 0.00728001)
(-0.341377 0.265968 0.00776025)
(-0.34215 0.267409 0.00753891)
(-0.342353 0.266698 0.00791655)
(-0.34209 0.266454 0.00805681)
(-0.342294 0.266191 0.00805376)
(-0.343127 0.267604 0.00790883)
(-0.337141 0.261457 0.00784247)
(-0.337861 0.262005 0.00797737)
(-0.338571 0.262021 0.00852736)
(-0.339009 0.261962 0.00856905)
(-0.339325 0.263509 0.00811978)
(-0.339575 0.262805 0.00859882)
(-0.33973 0.262515 0.00861355)
(-0.339623 0.263735 0.00813436)
(-0.340481 0.2635 0.0086327)
(-0.340523 0.263147 0.00856523)
(-0.340696 0.26324 0.00874472)
(-0.338534 0.260206 0.00944013)
(-0.33858 0.259881 0.00939239)
(-0.339392 0.260938 0.00919983)
(-0.339419 0.260901 0.00950052)
(-0.339524 0.261861 0.00903572)
(-0.339445 0.261821 0.00905447)
(-0.339552 0.261506 0.00897077)
(-0.339663 0.261576 0.00904333)
(-0.339762 0.261454 0.00894468)
(-0.340284 0.261684 0.00919803)
(-0.340421 0.261728 0.00924885)
(-0.340424 0.261659 0.00954526)
(-0.340326 0.261607 0.00957062)
(-0.340578 0.261339 0.00953416)
(-0.340283 0.262445 0.00907794)
(-0.340348 0.262671 0.00911272)
(-0.340469 0.262212 0.00902181)
(-0.341062 0.263044 0.00912125)
(-0.340924 0.262906 0.00924654)
(-0.341577 0.262546 0.00961303)
(-0.339236 0.259852 0.00993854)
(-0.339386 0.259591 0.00988052)
(-0.339825 0.260331 0.010028)
(-0.339895 0.260359 0.00997535)
(-0.340509 0.264427 0.0081829)
(-0.340582 0.264087 0.00810905)
(-0.341095 0.263958 0.00864387)
(-0.341555 0.265124 0.00849885)
(-0.341955 0.264561 0.00904629)
(-0.342657 0.264647 0.00927224)
(-0.344359 0.266411 0.00921851)
(-0.344807 0.266357 0.00918549)
(-0.34213 0.263244 0.00969019)
(-0.342496 0.263322 0.00967405)
(-0.342566 0.264233 0.00927679)
(-0.342849 0.264374 0.00940899)
(-0.343081 0.264577 0.00931603)
(-0.342606 0.262645 0.0101616)
(-0.342517 0.262377 0.0101103)
(-0.343892 0.26292 0.0107248)
(-0.343818 0.26252 0.0106744)
(-0.344271 0.263443 0.0104776)
(-0.344602 0.263017 0.0109962)
(-0.340529 0.259337 0.0106699)
(-0.34054 0.259068 0.0109302)
(-0.340853 0.258886 0.0110762)
(-0.340559 0.258195 0.0113998)
(-0.34068 0.257901 0.0113676)
(-0.341222 0.258698 0.0114275)
(-0.341432 0.258485 0.0113728)
(-0.341077 0.258562 0.0115255)
(-0.340113 0.256833 0.0114955)
(-0.340984 0.259738 0.0107042)
(-0.341035 0.259651 0.0109936)
(-0.3413 0.259659 0.0109643)
(-0.343337 0.261645 0.0108522)
(-0.34326 0.261201 0.0111212)
(-0.343387 0.261559 0.0111417)
(-0.34355 0.261336 0.0112974)
(-0.344519 0.262041 0.0115968)
(-0.344856 0.261625 0.011344)
(-0.344715 0.261793 0.0115557)
(-0.343615 0.260205 0.0117785)
(-0.328896 0.24421 0.0120177)
(-0.329026 0.244347 0.0118682)
(-0.328986 0.244386 0.0120417)
(-0.329183 0.244431 0.0120337)
(-0.328989 0.24421 0.0123191)
(-0.329048 0.244282 0.0123637)
(-0.329132 0.24432 0.0123271)
(-0.32909 0.243912 0.0122583)
(-0.329397 0.244148 0.0122753)
(-0.329253 0.244015 0.0123608)
(-0.330943 0.245829 0.0119464)
(-0.3309 0.245871 0.0121503)
(-0.330859 0.245649 0.0124232)
(-0.330934 0.245805 0.0124448)
(-0.331119 0.245849 0.0124376)
(-0.330991 0.245374 0.012364)
(-0.331343 0.245645 0.0123836)
(-0.330989 0.245729 0.0125126)
(-0.331175 0.245489 0.0124859)
(-0.333276 0.249295 0.0116368)
(-0.334121 0.248159 0.0126046)
(-0.320981 0.234349 0.0126022)
(-0.325838 0.236285 0.0154985)
(-0.326042 0.236008 0.0156673)
(-0.327095 0.241844 0.0123618)
(-0.327235 0.241648 0.0126669)
(-0.327411 0.241397 0.0128747)
(-0.327422 0.241217 0.013151)
(-0.32748 0.241285 0.013212)
(-0.327626 0.241374 0.0131623)
(-0.32753 0.240925 0.0130905)
(-0.327873 0.241189 0.0131096)
(-0.327684 0.241018 0.0132043)
(-0.329328 0.242878 0.0129825)
(-0.329258 0.242607 0.0132395)
(-0.329354 0.242822 0.0132794)
(-0.329638 0.242904 0.013278)
(-0.329421 0.242728 0.013375)
(-0.331559 0.244405 0.0133855)
(-0.331711 0.244724 0.0134263)
(-0.332052 0.244795 0.0134342)
(-0.331829 0.244558 0.0136013)
(-0.330184 0.239538 0.0160371)
(-0.330146 0.239582 0.0163479)
(-0.330427 0.239733 0.016384)
(-0.330241 0.239439 0.0166063)
(-0.330862 0.241202 0.0147424)
(-0.331025 0.241538 0.0147704)
(-0.331296 0.241683 0.0147743)
(-0.331339 0.241096 0.0150337)
(-0.334754 0.2441 0.0155412)
(-0.3347 0.243851 0.0161191)
(-0.334584 0.243789 0.0160027)
(-0.334582 0.243384 0.0160461)
(-0.334797 0.243491 0.0163031)
(-0.335621 0.243868 0.0166638)
(-0.335274 0.243812 0.0167195)
(-0.336165 0.244804 0.0167877)
(-0.336095 0.244407 0.0167227)
(-0.336337 0.244922 0.0169964)
(-0.333765 0.249662 0.0116678)
(-0.33343 0.249583 0.0116772)
(-0.333524 0.249453 0.0117909)
(-0.334253 0.248443 0.0126444)
(-0.33459 0.248531 0.012648)
(-0.334354 0.248303 0.0127596)
(-0.336018 0.252194 0.0116221)
(-0.336171 0.251905 0.0119102)
(-0.336525 0.250443 0.0126938)
(-0.336852 0.253692 0.011511)
(-0.336932 0.253996 0.0115585)
(-0.337293 0.254038 0.0115407)
(-0.337041 0.253462 0.0114551)
(-0.337062 0.25382 0.0116594)
(-0.339147 0.256079 0.0117487)
(-0.339716 0.255822 0.0119603)
(-0.339483 0.255621 0.0120502)
(-0.339669 0.255379 0.0120346)
(-0.337372 0.253434 0.0114235)
(-0.339044 0.252062 0.0135115)
(-0.339653 0.254059 0.0125858)
(-0.339745 0.254244 0.0126112)
(-0.34004 0.254365 0.0126185)
(-0.339811 0.25415 0.0127241)
(-0.340001 0.253901 0.0127468)
(-0.338561 0.251432 0.0134441)
(-0.339483 0.252149 0.0135115)
(-0.339208 0.251879 0.0136891)
(-0.341228 0.253222 0.0138549)
(-0.340225 0.25667 0.0117337)
(-0.343606 0.259666 0.0120393)
(-0.341724 0.255629 0.0129807)
(-0.341819 0.255584 0.0132988)
(-0.341731 0.255543 0.0133235)
(-0.344459 0.258532 0.0130072)
(-0.342247 0.253886 0.0138836)
(-0.343951 0.260231 0.012095)
(-0.343668 0.260114 0.0121076)
(-0.343901 0.259815 0.0122511)
(-0.344131 0.260022 0.0121383)
(-0.347145 0.261844 0.0127425)
(-0.347484 0.261604 0.0132358)
(-0.347722 0.261726 0.0134849)
(-0.347907 0.261488 0.013446)
(-0.344588 0.258865 0.0130388)
(-0.344732 0.258665 0.0132197)
(-0.346516 0.259573 0.0136265)
(-0.346591 0.259701 0.0136526)
(-0.346771 0.258938 0.0138505)
(-0.346722 0.259731 0.013638)
(-0.34761 0.25985 0.0138964)
(-0.347608 0.25813 0.0151475)
(-0.347654 0.257767 0.0150683)
(-0.347756 0.259641 0.0141647)
(-0.347935 0.258375 0.0151671)
(-0.34812 0.258097 0.0152128)
(-0.335087 0.247114 0.0135773)
(-0.335153 0.247204 0.0136331)
(-0.335306 0.247282 0.0135895)
(-0.341165 0.252276 0.0143102)
(-0.34127 0.252126 0.0144931)
(-0.341295 0.251 0.0155819)
(-0.3423 0.25172 0.0153556)
(-0.343064 0.252082 0.0156817)
(-0.336232 0.245774 0.0150719)
(-0.338521 0.248189 0.0153391)
(-0.338822 0.248258 0.0156272)
(-0.338661 0.248487 0.0153854)
(-0.337641 0.246262 0.0163089)
(-0.338454 0.2467 0.0165876)
(-0.341144 0.250718 0.0155802)
(-0.341228 0.250589 0.0158397)
(-0.341226 0.250141 0.0160891)
(-0.340793 0.24929 0.016591)
(-0.340981 0.249365 0.0169001)
(-0.342174 0.250268 0.0170197)
(-0.341472 0.250767 0.0159393)
(-0.342255 0.25145 0.0156204)
(-0.342376 0.251596 0.0157035)
(-0.342607 0.251721 0.01564)
(-0.3426 0.251304 0.0157241)
(-0.342119 0.250367 0.0166749)
(-0.342287 0.253826 0.0139895)
(-0.343273 0.2524 0.0156933)
(-0.348229 0.257967 0.0150574)
(-0.34823 0.257764 0.0153301)
(-0.348255 0.257912 0.0153543)
(-0.348419 0.257909 0.0153406)
(-0.348326 0.2578 0.0156596)
(-0.348452 0.257487 0.0155721)
(-0.348556 0.257502 0.0156211)
(-0.34338 0.252268 0.0158827)
(-0.346245 0.254431 0.0170617)
(-0.346579 0.254498 0.0170412)
(-0.346734 0.254342 0.0171058)
(-0.347645 0.255313 0.0171052)
(-0.347766 0.255446 0.0169452)
(-0.347713 0.255503 0.0171333)
(-0.348008 0.255592 0.0171273)
(-0.349119 0.256964 0.0166612)
(-0.34914 0.257162 0.0166944)
(-0.349224 0.257425 0.0167297)
(-0.349758 0.25778 0.0169544)
(-0.34999 0.257547 0.0170824)
(-0.349044 0.256771 0.0169418)
(-0.349632 0.256879 0.0171003)
(0.163228 -0.188395 0.0180863)
(0.159995 -0.185707 0.0180796)
(0.103774 -0.147313 0.0179338)
(-0.358418 0.265473 0.0171094)
(-0.125122 0.0514459 0.0174939)
(-0.102752 0.0322515 0.0175377)
(-0.102185 0.0317463 0.0175387)
(-0.355126 0.261947 0.0170908)
(0.242204 -0.135128 0.0186427)
(-0.121807 0.0500307 0.0175055)
(-0.343682 0.268634 0.00742897)
(-0.344976 0.268664 0.0082677)
(-0.345211 0.268867 0.00816116)
(-0.349876 0.272893 0.00831241)
(-0.345986 0.26728 0.00916291)
(-0.346784 0.268232 0.00926714)
(-0.347827 0.270009 0.00884843)
(-0.346294 0.265816 0.0101169)
(-0.347151 0.26768 0.00980438)
(-0.348114 0.267923 0.010026)
(-0.346354 0.265717 0.0104031)
(-0.346498 0.264489 0.0110379)
(-0.348126 0.265352 0.0111163)
(-0.349585 0.266419 0.0114302)
(-0.348868 0.269498 0.00933609)
(-0.349998 0.268941 0.0105245)
(-0.351631 0.270651 0.01029)
(-0.351615 0.27083 0.0102671)
(-0.352433 0.271252 0.0102642)
(-0.350972 0.268638 0.0108574)
(-0.351048 0.268519 0.011155)
(-0.351127 0.268401 0.0113187)
(-0.350635 0.267208 0.0115379)
(-0.350944 0.267835 0.0116638)
(-0.351368 0.268178 0.0117078)
(-0.351651 0.267991 0.0116147)
(-0.351639 0.269775 0.0106702)
(-0.352646 0.269117 0.0117239)
(-0.353438 0.269742 0.0117806)
(-0.348522 0.264779 0.0119418)
(-0.348525 0.26427 0.012031)
(-0.348771 0.264442 0.0121132)
(-0.352405 0.273398 0.00945406)
(-0.352285 0.272948 0.00935772)
(-0.355014 0.275431 0.00960431)
(-0.355757 0.2751 0.0100717)
(-0.353136 0.271838 0.010363)
(-0.353895 0.272783 0.0104404)
(-0.354462 0.271008 0.0116102)
(-0.354532 0.270902 0.0118977)
(-0.357172 0.273437 0.0118391)
(-0.357372 0.27318 0.011918)
(-0.356426 0.276593 0.00974368)
(-0.359822 0.279021 0.0102021)
(-0.35793 0.275879 0.0106521)
(-0.357467 0.274578 0.0110597)
(-0.357689 0.274828 0.0111694)
(-0.357898 0.274535 0.0112484)
(-0.359238 0.274651 0.0121908)
(-0.358557 0.273612 0.0123839)
(-0.35878 0.273814 0.0122348)
(-0.359126 0.274367 0.0121412)
(-0.361133 0.275202 0.0127651)
(-0.361397 0.274861 0.0129545)
(-0.364574 0.28447 0.00950661)
(-0.364358 0.277931 0.0132746)
(-0.364534 0.277683 0.0132837)
(-0.366099 0.28435 0.0102615)
(-0.366283 0.284627 0.0103012)
(-0.367096 0.285592 0.0100018)
(-0.367682 0.284743 0.0105694)
(-0.372132 0.283722 0.013676)
(-0.348103 0.262718 0.0127684)
(-0.348676 0.26251 0.0133635)
(-0.349056 0.261936 0.0138914)
(-0.349005 0.261863 0.0138314)
(-0.349314 0.262022 0.0138198)
(-0.349097 0.261558 0.0137701)
(-0.349276 0.261665 0.0139093)
(-0.349756 0.262036 0.0139295)
(-0.349919 0.261846 0.0141168)
(-0.350778 0.260629 0.0150187)
(-0.350794 0.260588 0.0153134)
(-0.351925 0.261097 0.0153483)
(-0.351546 0.266123 0.0125279)
(-0.351582 0.266229 0.0125609)
(-0.351855 0.266364 0.0125266)
(-0.352113 0.266021 0.012773)
(-0.352271 0.265802 0.0129654)
(-0.353161 0.266626 0.0131044)
(-0.353736 0.266852 0.0134083)
(-0.353939 0.266565 0.0137197)
(-0.352401 0.264495 0.0140372)
(-0.352546 0.264208 0.0139937)
(-0.352983 0.264955 0.0140748)
(-0.352931 0.264858 0.0141562)
(-0.35312 0.264611 0.0141703)
(-0.353807 0.265664 0.0139207)
(-0.353947 0.265665 0.0141064)
(-0.353853 0.26562 0.0141419)
(-0.353908 0.265259 0.0140377)
(-0.354078 0.265355 0.0141912)
(-0.354851 0.269042 0.0127782)
(-0.355757 0.269751 0.0128383)
(-0.357374 0.270016 0.0138295)
(-0.357797 0.270343 0.0136978)
(-0.358001 0.269227 0.0141363)
(-0.358363 0.268102 0.0151205)
(-0.358055 0.265999 0.0163023)
(-0.358103 0.265664 0.016242)
(-0.359632 0.26903 0.0154817)
(-0.360685 0.267997 0.0167099)
(-0.359953 0.271651 0.0140792)
(-0.360858 0.27247 0.0141365)
(-0.360975 0.272309 0.0142399)
(-0.363325 0.273116 0.0152833)
(-0.36015 0.270316 0.0150688)
(-0.360406 0.270503 0.0150748)
(-0.36387 0.272397 0.0160428)
(-0.364001 0.272212 0.0164705)
(-0.364202 0.271929 0.0165461)
(0.138464 -0.169006 0.018031)
(0.136163 -0.167975 0.0180231)
(0.139209 -0.171281 0.0180265)
(0.134894 -0.169198 0.0180122)
(0.134598 -0.169305 0.0180103)
(0.141554 -0.172152 0.0180353)
(-0.351056 0.259866 0.0157835)
(-0.35125 0.259924 0.0162279)
(-0.351545 0.260194 0.0161389)
(-0.351455 0.259658 0.0163126)
(-0.354779 0.262306 0.0162318)
(-0.350712 0.258606 0.0166498)
(-0.3515 0.260095 0.01628)
(-0.35189 0.25999 0.0163558)
(-0.353362 0.261522 0.0164966)
(-0.353337 0.261106 0.0164508)
(-0.353659 0.261759 0.0163861)
(-0.353711 0.261811 0.0165254)
(-0.353695 0.261689 0.016851)
(-0.353899 0.261402 0.0170249)
(-0.354792 0.262257 0.0165569)
(-0.0234491 -0.03869 0.0176826)
(0.0893027 -0.134742 0.017906)
(0.128236 -0.163055 0.0180007)
(0.165533 -0.190547 0.0181217)
(0.165266 -0.189897 0.0180911)
(0.1635 -0.188569 0.018087)
(0.163148 -0.189404 0.0180822)
(0.19487 -0.212398 0.0181597)
(0.194607 -0.212201 0.018159)
(0.178598 -0.200375 0.0181208)
(0.177738 -0.199543 0.0181226)
(0.186115 -0.204598 0.0181459)
(0.18152 -0.203107 0.0181257)
(0.203873 -0.218409 0.0181746)
(0.221487 -0.226832 0.0182422)
(0.220386 -0.226732 0.0181943)
(0.219948 -0.226045 0.0182373)
(0.219603 -0.225763 0.0182366)
(0.219017 -0.225687 0.0182339)
(0.189949 -0.208607 0.0181485)
(0.188969 -0.207858 0.0181803)
(0.429758 -0.324917 0.0189423)
(0.282848 -0.261004 0.0184937)
(0.288756 -0.263773 0.0184793)
(0.331628 -0.285175 0.018589)
(0.329913 -0.284311 0.0185834)
(0.312504 -0.276144 0.0186023)
(0.329419 -0.284072 0.0185818)
(0.199313 -0.214321 0.0181752)
(0.197262 -0.213274 0.0181686)
(0.171221 -0.196076 0.0180989)
(0.174909 -0.197456 0.0181126)
(0.174754 -0.19725 0.0181126)
(-0.364055 0.27598 0.0138826)
(-0.364568 0.276592 0.013952)
(-0.364059 0.275278 0.0140596)
(-0.363361 0.274188 0.0141877)
(-0.364129 0.275164 0.0143687)
(-0.364363 0.275377 0.0141383)
(-0.365788 0.275976 0.0146928)
(-0.366103 0.275528 0.0151818)
(-0.367163 0.27612 0.0153919)
(-0.364036 0.273224 0.0155747)
(-0.365886 0.273755 0.0160685)
(-0.365974 0.273639 0.0160932)
(-0.366814 0.277647 0.0144419)
(-0.36779 0.278355 0.0146302)
(-0.367524 0.277687 0.0148403)
(-0.367725 0.277395 0.0150731)
(-0.368981 0.277669 0.0154083)
(-0.368061 0.275903 0.0160337)
(-0.36998 0.277384 0.0161278)
(0.35925 -0.297868 0.018683)
(-0.372065 0.28075 0.0153356)
(0.304656 -0.221586 -0.00385875)
(0.257848 -0.1878 -0.00505035)
(0.495342 -0.30296 0.000679426)
(0.490446 -0.318414 0.00249936)
(0.28923 -0.165178 0.0186799)
(0.287907 -0.164399 0.0180884)
(0.282941 -0.161403 0.0185406)
(0.277068 -0.158034 0.0183908)
(0.219446 -0.119488 0.018351)
(0.203717 -0.105042 0.0184046)
(0.240642 -0.192752 -0.00501998)
(0.226384 -0.181992 -0.00508165)
(0.2999 -0.237686 -0.00287411)
(0.259054 -0.245654 0.011575)
(0.248043 -0.240114 0.0122866)
(0.24736 -0.240048 0.0128609)
(0.211082 -0.220981 0.0182776)
(0.209247 -0.220349 0.0182387)
(0.21104 -0.221811 0.0182075)
(0.185331 -0.202524 0.0166696)
(0.181029 -0.200213 0.017062)
(0.176925 -0.196532 0.0164599)
(0.176394 -0.196213 0.0164497)
(0.171554 -0.194703 0.0177854)
(0.171136 -0.1952 0.0180378)
(0.163055 -0.188747 0.0175023)
(0.163009 -0.186721 0.0168653)
(0.152519 -0.18057 0.0177913)
(-0.0705421 0.0521796 -0.00588778)
(-0.0724668 0.0542019 -0.00652048)
(-0.0730541 0.0544263 -0.00653064)
(-0.0793477 0.0635227 -0.011381)
(-0.0851205 0.0679269 -0.0109061)
(-0.0844643 0.0685386 -0.00744056)
(-0.0868306 0.0684809 -0.00764436)
(-0.0911809 0.0738405 -0.00847241)
(-0.0984104 0.0751715 -0.0058203)
(-0.0995199 0.077703 -0.00574956)
(-0.121142 0.0963307 -0.00525704)
(-0.259629 0.182823 0.00951577)
(-0.287699 0.213348 0.00803382)
(-0.288122 0.212885 0.00791419)
(-0.267071 0.189667 0.0101642)
(-0.270288 0.196585 0.00790552)
(-0.272727 0.196233 0.00929617)
(-0.275492 0.202251 0.00760729)
(-0.280672 0.20388 0.00938106)
(-0.280852 0.203617 0.00978921)
(-0.284635 0.205609 0.0105602)
(-0.285958 0.208435 0.00962788)
(-0.289561 0.20853 0.0106786)
(-0.290006 0.209022 0.0108887)
(-0.288594 0.220291 0.00472823)
(-0.28745 0.218631 0.00465195)
(-0.286667 0.215223 0.00658818)
(-0.292356 0.21615 0.00814139)
(-0.293844 0.219794 0.0078412)
(-0.295628 0.231168 0.00312382)
(-0.295714 0.228431 0.00477822)
(-0.29584 0.228278 0.00487604)
(-0.296525 0.22891 0.00461947)
(-0.296783 0.229053 0.00472146)
(-0.297812 0.229171 0.00507429)
(-0.298161 0.229209 0.00530238)
(-0.295122 0.219998 0.00831047)
(-0.295346 0.220154 0.00831594)
(-0.298261 0.22238 0.00797156)
(-0.300618 0.228468 0.00691186)
(-0.299299 0.231843 0.00480652)
(-0.300474 0.233214 0.00471776)
(-0.300719 0.232884 0.00485765)
(-0.300825 0.228645 0.00693762)
(-0.300998 0.228699 0.0068867)
(-0.303924 0.227446 0.00867672)
(-0.31246 0.238341 0.0073497)
(-0.313929 0.242477 0.00633346)
(-0.31405 0.242313 0.00640518)
(-0.31398 0.24041 0.0071583)
(-0.314117 0.23605 0.00924598)
(-0.314349 0.236253 0.00915337)
(-0.291968 0.210485 0.0108758)
(-0.293668 0.216405 0.00880446)
(-0.303577 0.219633 0.0125204)
(-0.30405 0.219536 0.0125854)
(-0.319655 0.234592 0.0126603)
(-0.3199 0.23425 0.012756)
(-0.410039 0.372934 0.00468499)
(-0.431219 0.384127 0.00589774)
(-0.425531 0.369687 0.00508074)
(0.162752 -0.142172 -0.00583714)
(0.0109623 -0.0169903 -0.00626883)
(-0.0128031 0.0147179 -0.0119752)
(-0.0173154 0.0178151 -0.0110808)
(-0.0169087 0.0112455 -0.0102324)
(-0.0167897 0.0166381 -0.00697281)
(-0.0212905 0.0173824 -0.00831006)
(-0.0227692 0.017123 -0.00908104)
(-0.0228785 0.0173858 -0.00975867)
(-0.0232445 0.0168654 -0.00916485)
(-0.0188556 0.0105053 -0.00746387)
(-0.021099 0.0115693 -0.0074587)
(-0.0243867 0.0154263 -0.00979476)
(-0.0239234 0.0138562 -0.0072814)
(-0.0231634 0.0207633 -0.0110276)
(-0.023803 0.0182689 -0.010601)
(-0.0256837 0.0237514 -0.0106132)
(-0.028979 0.0195996 -0.0104202)
(-0.0281584 0.0183597 -0.00806066)
(-0.025866 0.01727 -0.00683381)
(-0.0292247 0.0192163 -0.0092048)
(-0.0291687 0.0256208 -0.010563)
(-0.0298686 0.0263132 -0.0111661)
(-0.0300734 0.0260038 -0.010568)
(-0.032112 0.0270797 -0.00704163)
(-0.0352645 0.0299522 -0.00709783)
(-0.0356935 0.0298904 -0.00707345)
(-0.0361245 0.0298468 -0.00728051)
(-0.036278 0.0296559 -0.00745494)
(-0.035208 0.0193075 -0.0102642)
(-0.0348217 0.0197411 -0.00958828)
(-0.0366625 0.0211184 -0.00701854)
(-0.0374567 0.0210832 -0.00642706)
(-0.0405347 0.0238142 -0.00967488)
(-0.0159391 0.00872897 -0.00617087)
(-0.0418444 0.0363088 -0.00722352)
(-0.0414005 0.0359001 -0.00697453)
(-0.0425412 0.0265652 -0.00651914)
(-0.0463556 0.0399995 -0.00802013)
(-0.0464735 0.0406257 -0.0102059)
(-0.0458411 0.039988 -0.00928837)
(-0.0485608 0.0415278 -0.00707301)
(-0.0563202 0.0373747 -0.0063372)
(-0.0558968 0.0480786 -0.00994717)
(-0.0606454 0.0439656 -0.00998547)
(-0.0534844 0.0453757 -0.00701956)
(-0.0564264 0.0471986 -0.0066834)
(-0.0569588 0.0475077 -0.00676567)
(-0.0577414 0.0375055 -0.00614405)
(0.144231 -0.173304 0.0160615)
(0.135143 -0.168352 0.0171706)
(0.124627 -0.160042 0.0164196)
(0.113622 -0.151358 0.015628)
(0.11291 -0.151307 0.0158887)
(0.111649 -0.152994 0.0165936)
(0.0320929 -0.0841097 0.0147887)
(0.03192 -0.084357 0.0150384)
(-0.0165664 -0.0408982 0.015121)
(-0.0170985 -0.0405954 0.0151317)
(-0.0165778 -0.0409568 0.0157273)
(-0.0161287 -0.0414613 0.0169137)
(-0.0598555 -0.00362128 0.0151443)
(-0.0598892 -0.00370843 0.0157438)
(-0.0407946 -0.0217223 0.0159706)
(-0.0417575 -0.0218809 0.0164881)
(-0.0700395 0.00168642 0.0169083)
(-0.0384721 0.0945495 0.0164125)
(-0.0427256 0.0981678 0.016317)
(-0.0445964 0.0997242 0.0164874)
(-0.0641854 0.117013 0.0165422)
(-0.0645414 0.11757 0.016857)
(-0.0650297 0.117951 0.0168582)
(-0.0851012 0.135578 0.0172817)
(-0.0848367 0.134961 0.0170289)
(-0.0857711 0.135719 0.0170783)
(-0.0862361 0.13611 0.0170773)
(-0.0680968 0.0620025 -0.00999301)
(-0.0690273 0.0606907 -0.00694966)
(-0.0682342 0.0605759 -0.00625651)
(-0.069097 0.0606053 -0.00635517)
(-0.0658437 0.0573149 -0.00666855)
(-0.0659861 0.0567048 -0.00678562)
(-0.0700664 0.0630961 -0.00722425)
(-0.0695856 0.0619975 -0.00807016)
(-0.0701189 0.0623551 -0.00736428)
(-0.0701527 0.0630204 -0.00662706)
(-0.0699249 0.0626815 -0.00597513)
(-0.070354 0.0624237 -0.00674881)
(-0.0702693 0.0621399 -0.00612811)
(-0.0693648 0.0606998 -0.00632107)
(-0.0658755 0.0567949 -0.00613888)
(-0.0692271 0.0608693 -0.00597198)
(-0.0816224 0.0741413 -0.00677141)
(-0.084982 0.0791795 -0.00591377)
(-0.0831781 0.0750946 -0.00629877)
(-0.0832602 0.0750016 -0.00648858)
(-0.0805486 0.0715952 -0.00778705)
(-0.0819594 0.0699988 -0.0102612)
(-0.085817 0.0748369 -0.00888491)
(-0.0898775 0.0811637 -0.00653546)
(-0.0928395 0.0824508 -0.00683791)
(-0.092228 0.0822667 -0.00667075)