/*--------------------------------*- C++ -*----------------------------------*\
| =========                 |                                                 |
| \\      /  F ield         | OpenFOAM: The Open Source CFD Toolbox           |
|  \\    /   O peration     | Version:  2312                                  |
|   \\  /    A nd           | Website:  www.openfoam.com                      |
|    \\/     M anipulation  |                                                 |
\*---------------------------------------------------------------------------*/
FoamFile
{
    version     2.0;
    format      ascii;
    arch        "LSB;label=64;scalar=64";
    class       featureEdgeMesh;
    location    "constant/triSurface";
    object      in.eMesh;
}
// * * * * * * * * * * * * * * * * * * * * * * * * * * * * * * * * * * * * * //


// points:

132
(
(-0.421964 0.398797 0.00817851)
(-0.41913 0.401689 0.00981033)
(-0.418171 0.4026 0.010556)
(-0.422588 0.398237 0.00792742)
(-0.417774 0.40308 0.0110334)
(-0.417213 0.403656 0.0116191)
(-0.416351 0.40454 0.012419)
(-0.4153 0.405521 0.013316)
(-0.41445 0.406485 0.0138962)
(-0.414283 0.40656 0.0138928)
(-0.414178 0.406763 0.014042)
(-0.413539 0.407423 0.0149638)
(-0.412788 0.408169 0.0158089)
(-0.454896 0.365581 0.0135219)
(-0.453234 0.367235 0.0118313)
(-0.423168 0.397654 0.0076493)
(-0.424036 0.396688 0.00725991)
(-0.451929 0.368537 0.0107056)
(-0.450473 0.3699 0.00948311)
(-0.448846 0.371616 0.00822773)
(-0.425304 0.395402 0.00700469)
(-0.447587 0.372875 0.00733911)
(-0.446162 0.374304 0.00662678)
(-0.445497 0.374845 0.00635447)
(-0.427596 0.392992 0.00657314)
(-0.428108 0.392558 0.00649782)
(-0.444617 0.375857 0.00602865)
(-0.443567 0.37686 0.00577789)
(-0.442767 0.377724 0.00578206)
(-0.428188 0.392477 0.00647853)
(-0.429655 0.390989 0.00620881)
(-0.430759 0.389877 0.00644685)
(-0.434829 0.385753 0.00592956)
(-0.433806 0.386911 0.00594766)
(-0.433251 0.387352 0.00612701)
(-0.421754 0.399012 0.00823953)
(-0.421536 0.399233 0.00836689)
(-0.421405 0.399366 0.00842284)
(-0.421108 0.39967 0.00861421)
(-0.420617 0.400172 0.00890741)
(-0.420187 0.40061 0.00916578)
(-0.419377 0.401436 0.00964049)
(-0.41894 0.401883 0.00992245)
(-0.418884 0.40194 0.00992829)
(-0.418575 0.402255 0.0101307)
(-0.418424 0.4024 0.0102723)
(-0.4175 0.40336 0.0112844)
(-0.416961 0.403915 0.0118493)
(-0.414709 0.40622 0.0136723)
(-0.414036 0.40691 0.014276)
(-0.413857 0.407094 0.0144948)
(-0.41136 0.409662 0.0171539)
(-0.411079 0.409949 0.0173797)
(-0.458569 0.361921 0.0169287)
(-0.458113 0.362376 0.0165919)
(-0.457915 0.362574 0.016453)
(-0.457378 0.363109 0.0158883)
(-0.456867 0.363616 0.0152997)
(-0.455921 0.364559 0.014421)
(-0.455797 0.364683 0.0143133)
(-0.455769 0.364711 0.0142896)
(-0.455633 0.364846 0.0141614)
(-0.453908 0.366647 0.0123828)
(-0.452202 0.368265 0.0109546)
(-0.452022 0.368445 0.0107959)
(-0.423653 0.397077 0.00736503)
(-0.424651 0.396064 0.00709168)
(-0.424531 0.396186 0.00711622)
(-0.425087 0.395622 0.00704513)
(-0.425151 0.395558 0.00703382)
(-0.451579 0.368885 0.0103273)
(-0.451369 0.369094 0.0101207)
(-0.451255 0.369208 0.0100082)
(-0.449885 0.370575 0.00890675)
(-0.44954 0.370921 0.00867725)
(-0.448578 0.371883 0.00799238)
(-0.448227 0.372234 0.00771618)
(-0.425968 0.394727 0.00681374)
(-0.425828 0.394869 0.00682338)
(-0.448044 0.372417 0.0076028)
(-0.447718 0.372743 0.00741097)
(-0.447436 0.373026 0.00722868)
(-0.446817 0.373646 0.00692907)
(-0.44591 0.374557 0.00647946)
(-0.445093 0.375377 0.00614039)
(-0.444708 0.375765 0.006046)
(-0.444155 0.376258 0.00583625)
(-0.442991 0.377498 0.00578056)
(-0.442312 0.378183 0.00572037)
(-0.442017 0.378481 0.00567411)
(-0.441906 0.378593 0.00565829)
(-0.441858 0.378642 0.00566548)
(-0.428747 0.391771 0.00624252)
(-0.430078 0.390563 0.00628208)
(-0.429838 0.390804 0.00621235)
(-0.441505 0.378998 0.00566555)
(-0.441076 0.379433 0.00569849)
(-0.440709 0.379804 0.00570005)
(-0.440594 0.37992 0.00566263)
(-0.440349 0.380167 0.00567115)
(-0.44016 0.380358 0.0056335)
(-0.440005 0.380514 0.00557912)
(-0.439902 0.380618 0.00554425)
(-0.431055 0.389578 0.006416)
(-0.439739 0.380781 0.0054367)
(-0.439429 0.381091 0.00524541)
(-0.431118 0.389514 0.00639791)
(-0.439255 0.381266 0.00517461)
(-0.438995 0.381527 0.00504062)
(-0.438823 0.381699 0.00490408)
(-0.438522 0.382002 0.00482858)
(-0.431199 0.389431 0.00636824)
(-0.431494 0.389131 0.00628491)
(-0.431288 0.38934 0.00629898)
(-0.431675 0.388948 0.00628316)
(-0.438386 0.382138 0.00476154)
(-0.438269 0.382257 0.00477859)
(-0.437935 0.382595 0.00484682)
(-0.437764 0.382771 0.0050034)
(-0.437063 0.383494 0.00529319)
(-0.436368 0.384206 0.00560909)
(-0.435706 0.384865 0.00583825)
(-0.435336 0.38524 0.00587104)
(-0.434987 0.385594 0.00593238)
(-0.43461 0.385974 0.00588398)
(-0.432009 0.388608 0.00612222)
(-0.431909 0.38871 0.00617607)
(-0.431792 0.388829 0.0062489)
(-0.432184 0.388432 0.00612812)
(-0.432641 0.387968 0.0061203)
(-0.43244 0.388172 0.0060835)
(-0.432962 0.387644 0.00614553)
)


// edges:

161
(
(2 1)
(1 0)
(11 7)
(12 1)
(14 13)
(1 16)
(19 18)
(18 17)
(20 24)
(23 21)
(27 23)
(28 27)
(23 29)
(34 32)
(1 3)
(4 1)
(10 8)
(11 6)
(5 1)
(1 15)
(15 16)
(19 17)
(22 21)
(20 25)
(27 26)
(29 30)
(29 31)
(23 31)
(33 32)
(0 35)
(35 36)
(36 37)
(37 38)
(38 39)
(39 40)
(40 41)
(41 1)
(42 43)
(43 44)
(44 45)
(1 42)
(45 2)
(3 0)
(2 4)
(4 46)
(46 5)
(5 47)
(47 6)
(7 48)
(48 8)
(8 9)
(9 10)
(49 50)
(50 11)
(10 49)
(6 7)
(11 12)
(51 52)
(52 53)
(12 51)
(53 54)
(54 55)
(56 57)
(57 58)
(55 56)
(58 59)
(59 60)
(60 61)
(61 13)
(13 62)
(62 14)
(14 63)
(63 64)
(15 3)
(16 65)
(65 15)
(66 67)
(67 16)
(68 66)
(69 68)
(64 17)
(17 70)
(70 71)
(71 72)
(72 18)
(18 73)
(73 74)
(19 75)
(75 76)
(74 19)
(77 78)
(78 20)
(20 69)
(76 79)
(79 80)
(80 21)
(21 81)
(81 82)
(22 83)
(83 23)
(82 22)
(24 77)
(25 24)
(23 84)
(84 85)
(26 86)
(86 27)
(85 26)
(27 87)
(87 28)
(88 89)
(89 90)
(90 91)
(28 88)
(29 25)
(30 92)
(92 29)
(93 94)
(94 30)
(31 93)
(91 95)
(95 96)
(97 98)
(98 99)
(96 97)
(100 101)
(101 102)
(99 100)
(103 31)
(102 104)
(104 105)
(106 103)
(105 107)
(108 109)
(109 110)
(107 108)
(111 106)
(112 113)
(113 111)
(114 112)
(110 115)
(115 116)
(116 117)
(117 118)
(118 119)
(119 120)
(121 122)
(122 123)
(32 124)
(124 33)
(33 34)
(123 32)
(125 126)
(126 127)
(128 125)
(129 130)
(130 128)
(131 129)
(34 131)
(120 121)
(127 114)
)

// * * * * * * * * * * * * * * * * * * * * * * * * * * * * * * * * * * * * * //


// ************************************************************************* //
