/*--------------------------------*- C++ -*----------------------------------*\
| =========                 |                                                 |
| \\      /  F ield         | OpenFOAM: The Open Source CFD Toolbox           |
|  \\    /   O peration     | Version:  2312                                  |
|   \\  /    A nd           | Website:  www.openfoam.com                      |
|    \\/     M anipulation  |                                                 |
\*---------------------------------------------------------------------------*/
FoamFile
{
    version     2.0;
    format      ascii;
    arch        "LSB;label=64;scalar=64";
    class       featureEdgeMesh;
    location    "constant/triSurface";
    object      out.eMesh;
}
// * * * * * * * * * * * * * * * * * * * * * * * * * * * * * * * * * * * * * //


// points:

111
(
(0.478743 -0.340563 0.0191338)
(0.523031 -0.264718 0.0196329)
(0.52141 -0.268758 0.0145556)
(0.520079 -0.27157 0.0122438)
(0.483917 -0.333447 0.0117313)
(0.483451 -0.334227 0.0123821)
(0.508787 -0.293259 0.00137108)
(0.507096 -0.296312 0.00118707)
(0.485858 -0.330716 0.00921606)
(0.487197 -0.32879 0.00766157)
(0.488307 -0.327314 0.00658658)
(0.48893 -0.326256 0.00583323)
(0.488618 -0.326716 0.00614762)
(0.48941 -0.325534 0.00541177)
(0.489873 -0.324839 0.00499853)
(0.49192 -0.3218 0.00303685)
(0.478797 -0.340504 0.0189873)
(0.523038 -0.264788 0.0192131)
(0.523015 -0.265131 0.018374)
(0.522945 -0.265353 0.0179293)
(0.522853 -0.265626 0.0174343)
(0.52278 -0.265813 0.0171616)
(0.522647 -0.266124 0.0168052)
(0.522587 -0.266264 0.016645)
(0.522257 -0.266978 0.0159947)
(0.521981 -0.267586 0.0154047)
(0.521764 -0.268036 0.0150636)
(0.520647 -0.27055 0.0130123)
(0.478858 -0.340448 0.0187796)
(0.479532 -0.339822 0.016524)
(0.479323 -0.340063 0.0170226)
(0.479131 -0.340192 0.017876)
(0.519868 -0.27201 0.0118999)
(0.479575 -0.339772 0.0164253)
(0.479551 -0.339801 0.0164714)
(0.480046 -0.339122 0.0157526)
(0.479723 -0.339569 0.0162081)
(0.481199 -0.337439 0.0145254)
(0.480959 -0.337797 0.0147548)
(0.480435 -0.338554 0.0153398)
(0.519428 -0.272953 0.0110743)
(0.519171 -0.273484 0.0106772)
(0.518693 -0.274458 0.00999767)
(0.51854 -0.274777 0.00975398)
(0.51774 -0.27641 0.00860369)
(0.481543 -0.336934 0.0141721)
(0.517593 -0.276715 0.00837111)
(0.51725 -0.2774 0.00794796)
(0.481816 -0.336538 0.0138715)
(0.482044 -0.336202 0.0136405)
(0.481884 -0.33644 0.0137883)
(0.482695 -0.335222 0.0130747)
(0.516809 -0.278297 0.00732692)
(0.516526 -0.27885 0.0070254)
(0.516003 -0.279871 0.00647084)
(0.515621 -0.280633 0.00599963)
(0.515053 -0.281753 0.00535939)
(0.514618 -0.282589 0.00495505)
(0.483849 -0.333545 0.0118076)
(0.514374 -0.283069 0.00468858)
(0.51415 -0.283514 0.00441883)
(0.513764 -0.284246 0.004109)
(0.512959 -0.285777 0.00343705)
(0.512834 -0.286015 0.00333042)
(0.512163 -0.287291 0.00276773)
(0.511684 -0.288181 0.00245547)
(0.510864 -0.289701 0.00194241)
(0.510738 -0.28993 0.00188329)
(0.510514 -0.290331 0.00180099)
(0.50973 -0.291748 0.0014687)
(0.509414 -0.292306 0.00139163)
(0.508227 -0.294367 0.00124214)
(0.507428 -0.295744 0.00119288)
(0.484135 -0.333149 0.0114124)
(0.506399 -0.297554 0.000962429)
(0.506068 -0.298128 0.000926144)
(0.505873 -0.298485 0.00082352)
(0.505488 -0.299158 0.000753112)
(0.505193 -0.299668 0.000728332)
(0.504719 -0.300463 0.000792086)
(0.502919 -0.303493 0.000983022)
(0.501936 -0.305151 0.00106619)
(0.50128 -0.306245 0.00118509)
(0.500163 -0.308067 0.00155681)
(0.499321 -0.309437 0.00184315)
(0.498452 -0.3109 0.00193707)
(0.497917 -0.311796 0.00201074)
(0.484526 -0.332627 0.0107804)
(0.485193 -0.331675 0.00997806)
(0.484616 -0.332509 0.010629)
(0.485268 -0.331563 0.00991236)
(0.486652 -0.329587 0.00823682)
(0.48613 -0.330334 0.00886557)
(0.487571 -0.328252 0.0072302)
(0.488785 -0.326476 0.00595556)
(0.489159 -0.325927 0.00556804)
(0.489607 -0.32524 0.00523242)
(0.490088 -0.3246 0.00444952)
(0.489886 -0.324838 0.00491259)
(0.490732 -0.323693 0.00361914)
(0.490594 -0.323882 0.0038218)
(0.49707 -0.31315 0.00203143)
(0.49211 -0.321498 0.00294299)
(0.492037 -0.321616 0.00296426)
(0.494103 -0.318428 0.0015061)
(0.493689 -0.319116 0.00158612)
(0.493169 -0.319882 0.00211027)
(0.49515 -0.316636 0.00152045)
(0.494417 -0.317899 0.0014698)
(0.496304 -0.314609 0.00175821)
(0.496045 -0.315074 0.00166627)
)


// edges:

123
(
(3 2)
(7 6)
(8 9)
(12 11)
(11 13)
(13 14)
(14 15)
(10 14)
(5 4)
(8 10)
(10 11)
(10 15)
(16 0)
(0 1)
(1 17)
(17 18)
(18 19)
(19 20)
(20 21)
(21 22)
(22 23)
(23 24)
(24 25)
(25 26)
(2 27)
(27 3)
(26 2)
(28 16)
(29 30)
(30 31)
(31 28)
(3 32)
(33 34)
(34 29)
(35 36)
(36 33)
(37 38)
(38 39)
(39 35)
(32 40)
(40 41)
(42 43)
(43 44)
(41 42)
(45 37)
(44 46)
(46 47)
(48 45)
(49 50)
(50 48)
(51 49)
(47 52)
(52 53)
(53 54)
(54 55)
(55 56)
(56 57)
(4 58)
(58 5)
(5 51)
(57 59)
(59 60)
(60 61)
(62 63)
(63 64)
(61 62)
(64 65)
(65 66)
(66 67)
(67 68)
(68 69)
(69 70)
(6 71)
(71 72)
(70 6)
(73 4)
(72 7)
(7 74)
(74 75)
(75 76)
(76 77)
(77 78)
(78 79)
(80 81)
(81 82)
(79 80)
(82 83)
(84 85)
(85 86)
(83 84)
(87 73)
(88 89)
(89 87)
(90 88)
(91 92)
(92 8)
(8 90)
(9 91)
(10 93)
(93 9)
(11 94)
(94 12)
(12 10)
(13 95)
(95 11)
(14 96)
(96 13)
(97 98)
(98 14)
(15 99)
(99 100)
(100 97)
(86 101)
(102 103)
(103 15)
(104 105)
(105 106)
(106 102)
(107 108)
(108 104)
(109 110)
(110 107)
(101 109)
)

// * * * * * * * * * * * * * * * * * * * * * * * * * * * * * * * * * * * * * //


// ************************************************************************* //
